<routes><routeDistribution id="routedistcal1"><route edges="-34962531#1 -37973572#8 -37973572#7 -37973572#5 130443630#7 130443630#9 179692877#0 179692877#2 42976406#6 42976406#7 42976406#8 42976406#9 42976406#10 42976406#11 122301988#0 122301988#1 880555131#0 880555131#2 154500688#0 154500688#3 154500688#5 154500688#6 874006655 309843440#0 309843440#2 309843440#3 154881341#0 154881341#1 154881334#0 47092240#0 47092240#1 757788071#0 757788071#1 757788071#2 757788074#0 757788074#1 757788074#2 876131444 876131440 167693277#0 167693277#1 167693277#2 167693277#3 167693277#4 880575676#0 880575676#1 880575676#2 880575676#3 881245054#0 881245054#1" probability="0.01" />
    <route edges="-34962531#1 -37973572#8 -37973572#7 -37973572#5 -37973572#4 -37973572#2 -659342830 -313087692 -313087693 -447699318#7 154844470#1 154844465#0 154844465#1 154844465#3 154844465#4 154844463#1 154844479#1 154844473 -369511961#14 -369511961#9 -369511961#5 -369511961#2 -369511961#1 -149868584#8 -149868584#7 -149868584#5 -149868584#3 -149868584#2 -170590355#1 -356857809#5 881916064#3 881916064#4 881916064#5 28107377#0 28107377#1 28107362#6" probability="0.01" />
    <route edges="-34962531#1 -37973572#8 -37973572#7 -37973572#5 130443630#7 130443630#9 179692877#0 179692877#2 42976406#6 42976406#7 42976406#8 42976406#9 42976406#10 42976406#11 122301988#0 122301988#1 880555131#0 880555131#2 154500688#0 154500688#3 154500688#5 154500688#6 874006655 309843440#0 309843440#2 309843440#3 154881341#0 154881341#1 154881334#0 47092240#0 47092240#1 757788071#0 757788071#1 757788071#2 757788074#0 757788074#1 757788074#2 876131444 876131440 167693277#0 167693277#1 167693277#2 167693277#3 167693277#4 657150065#0 657150065#1 881245049#0 881245049#1 173271714#0 173271714#1 173271714#1-AddedOffRampEdge 173271714#2 42246159" probability="0.01" />
    <route edges="-34962531#1 -37973572#8 -37973572#7 -37973572#5 -37973572#4 -37973572#2 -659342830 -313087692 -313087693 -447699318#7 154844470#1 154844465#0 154844465#1 154844465#3 154844465#4 154844463#1 154844479#1 154844473 -369511961#14 -369511961#9 -369511961#5 -369511961#2 -369511961#1 -149868584#8 -149868584#7 -149868584#5 -149868584#3 -149868584#2 -170590355#1 -356857809#5 -356857809#3 -356857809#2 -356857808#7 -356857808#5 -356857808#4 -356857808#3 -356857808#2 -356857808#0 8272429#0 8272429#2 8272429#3 8272429#4" probability="0.01" />
    <route edges="-34962531#1 -37973572#8 -37973572#7 -37973572#5 130443630#7 130443630#9 179692877#0 179692877#2 42976406#6 42976406#7 42976406#8 42976406#9 42976406#10 42976406#11 122301988#0 122301988#1 880555131#0 880555131#2 154500688#0 154500688#3 154500688#5 154500688#6 874006655 309843440#0 309843440#2 309843440#3 154881341#0 154881341#1 154881334#0 47092240#0 47092240#1 757788071#0 757788071#1 757788071#2 757788074#0 757788074#1 757788074#2 876131442#0 876131442#1 876131442#2 876131442#3 876120666 862447333#0 862447333#1 862447333#2" probability="0.01" />
    <route edges="-34962531#1 -37973572#8 -37973572#7 -37973572#5 -37973572#4 -37973572#2 -659342830 -313087692 -313087693 -447699318#7 154844470#1 154844465#0 154844465#1 154844465#3 154844465#4 154844463#1 154844479#1 154844473 -369511961#14 -369511961#9 -369511961#5 -369511961#2 -369511961#1 -149868584#8 -149868584#7 -149868584#5 -149868584#3 -149868584#2 -170590355#1 -356857809#5 881916064#3 881916064#4 881916064#5 43012899#3 43012899#4 43012899#7" probability="0.01" />
    <route edges="-34962531#1 -37973572#8 -37973572#7 -37973572#5 -37973572#4 -37973572#2 -659342830 -313087692 -313087693 -447699318#7 154844470#1 154844465#0 154844465#1 154844465#3 154844465#4 154844463#1 154844479#1 154844473 -369511961#14 -369511961#9 -369511961#5 -369511961#2 -369511961#1 170594819#1 170594819#2 170594819#3 170594819#4 170594819#5 170594819#6 170594819#8" probability="0.01" />
    <route edges="-34962531#1 -37973572#8 -37973572#7 -37973572#5 130443630#7 130443630#9 179692877#0 179692877#2 42976406#6 42976406#7 154500706#2 154500706#3 154500706#4 8272412#0 8272412#1 8272412#2 8272412#3 876124551#0 876124549#0 876124549#1 876124550#0 23262356#1 862447324#3" probability="0.01" />
    <route edges="-34962531#1 -37973572#8 -37973572#7 -37973572#5 -37973572#4 -37973572#2 -659342830 -313087692 -313087693 -447699318#7 154844470#1 154844465#0 154844465#1 154844465#3 154844465#4 154844463#1 154844479#1 154844473 -369511961#14 -369511961#9 -369511961#5 -369511961#2 -369511961#1 -149868584#8 -149868584#7 -149868584#5 -149868584#3 -149868584#2 -170590355#1 -356857809#5 -356857809#3 -356857809#2 -356857808#7 881916066#3 881916066#4 881916066#5 757788076#0 757788076#1 757788075#0 757788075#1 757788075#3" probability="0.01" />
    <route edges="-34962531#1 -37973572#8 -37973572#7 -37973572#5 130443630#7 130443630#9 179692877#0 179692877#2 42976406#6 42976406#7 42976406#8 42976406#9 42976406#10 42976406#11 122301988#0 122301988#1 880555131#0 880555131#2 154500688#0 154500688#3 154500688#5 154500688#6 874006655 309843440#0 309843440#2 309843440#3 154881341#0 154881341#1 154881334#0 47092240#0 47092240#1 757788071#0 757788071#1 757788071#2 757788074#0 757788074#1 757788074#2 876131444 876131440 167693277#0 167693277#1 167693277#2 167693277#3 167693277#4 657150065#0 657150065#1 -369511399#9 -369511399#7 -369511399#5 369511399#5 369511399#7" probability="0.01" />
    <route edges="-34962531#1 -37973572#8 -37973572#7 -37973572#5 130443630#7 130443630#9 179692877#0 179692877#2 42976406#6 42976406#7 42976406#8 42976406#9 42976406#10 42976406#11 122301988#0 122301988#1 880555131#0 880555131#2 154500688#0 154500688#3 154500688#5 154500688#6 874006655 309843440#0 309843440#2 309843440#3 154881341#0 154881341#1 154881334#0 154881335 81096877#0" probability="0.01" />
    <route edges="-34962531#1 -37973572#8 -37973572#7 -37973572#5 130443630#7 130443630#9 179692877#0 179692877#2 42976406#6 42976406#7 42976406#8 42976406#9 42976406#10 42976406#11 122301988#0 122301988#1 880555131#0 880555131#2 154500688#0 746095034 369844983#0 369844983#2 876120662#0 876120662#1 876120662#2 876120662#3 81096816#14 81096816#15 81096816#16 81096816#18 80347021#0 80347021#3 80347021#4 37449247#0 37449247#2" probability="0.01" />
    <route edges="-34962531#1 -37973572#8 -37973572#7 -37973572#5 -37973572#4 -37973572#2 -659342830 -313087692 -313087693 -447699318#7 154844470#1 154844465#0 154844465#1 154844465#3 154844465#4 154844463#1 154844479#1 154844473 -369511961#14 -369511961#9 -369511961#5 -369511961#2 -369511961#1 -149868584#8 -149868584#7 -149868584#5 -149868584#3 -149868584#2 881245057#2 755147086#2 755147086#3 755147086#4 755147086#7 -447701732 -379511956#11 -379511956#8 -379511956#7 -379511956#6 -379511956#5 379511956#5 379511956#6 379511956#7" probability="0.01" />
    <route edges="-34962531#1 -37973572#8 -37973572#7 -37973572#5 -37973572#4 -37973572#2 -659342830 -313087692 -313087693 -447699318#7 154844470#1 154844465#0 154844465#1 154844465#3 154844465#4 154844463#1 154844479#1 154844473 -369511961#14 -369511961#9 -369511961#5 -369511961#2 -369511961#1 170594819#1 23801025#2 876531526#0 23182635#0" probability="0.01" />
    <route edges="-34962531#1 -37973572#8 -37973572#7 -37973572#5 130443630#7 130443630#9 179692877#0 179692877#2 42976406#6 42976406#7 42976406#8 42976406#9 42976406#10 42976406#11 122301988#0 122301988#1 880555131#0 880555131#2 154500688#0 746095034 369844983#0 369844983#2 876120662#0 876120662#1 876120662#2 876120662#3 876120663#0 876120663#1 876120663#2 -160587533#3 -160587533#2 -160587533#1 160587533#1 160587533#2" probability="0.01" />
    <route edges="-34962531#1 -37973572#8 -37973572#7 -37973572#5 130443630#7 130443630#9 179692877#0 179692877#2 42976406#6 42976406#7 154500706#2 154500706#3 154500706#4 8272412#0 8272412#1 8272412#2 8272412#3 876124551#0 876124549#0 876124549#1 876124550#0 160587545#0 160587545#1 160587545#2 160587545#3 160587545#4 862447326#0 862447326#1 862447327#0 862447327#1 862447327#2 756569655#0 756569655#1 756569655#2 756569655#3 -23566893#1 -23566893#0 -487814041#1 -487814041#0 -855883542#8 -855883542#6 -855883542#5 -855883542#4 -855883542#3 -855883542#2 -855883542#0 855883542#0 855883542#2" probability="0.01" />
    <route edges="-34962531#1 -37973572#8 -37973572#7 -37973572#5 -37973572#4 -37973572#2 -659342830 -313087692 -313087693 -447699318#7 154844470#1 154844465#0 154844465#1 154844465#3 154844465#4 154844463#1 154844479#1 154844473 -369511961#14 -369511961#9 -369511961#5 -369511961#2 -369511961#1 -149868584#8 -149868584#7 -149868584#5 -149868584#3 -149868584#2 881245057#2 755147086#2 755147086#3 755147086#4 755147086#7 -447701732 -379511956#11 -379511956#8 -379511956#7 -379511956#6 -379511956#5 379511956#5 379511956#6 379511956#7 890208637 890208974#0 890208974#1" probability="0.01" />
    <route edges="-34962531#1 -37973572#8 -37973572#7 -37973572#5 130443630#7 130443630#9 179692877#0 179692877#2 42976406#6 42976406#7 154500706#2 154500706#3 154500706#4 8272412#0 8272412#1 8272412#2 8272412#3 876124551#0 876124549#0 876124549#1 876124550#0 23262356#1 23262356#2 23262356#3 23262356#6 -23262356#6" probability="0.01" />
    <route edges="-34962531#1 -37973572#8 -37973572#7 -37973572#5 -37973572#4 -37973572#2 -659342830 -313087692 -313087693 -447699318#7 154844470#1 154844465#0 154844465#1 154844465#3 154844465#4 154844463#1 154844479#1 154844473 -369511961#14 -369511961#9 -369511961#5 -369511961#2 -369511961#1 -149868584#8 -149868584#7 -149868584#5 -149868584#3 -149868584#2 -170590355#1 -356857809#5 -356857809#3 -356857809#2 -356857808#7 -356857808#5 -356857808#4 356857808#4" probability="0.01" />
    <route edges="-34962531#1 -37973572#8 -37973572#7 -37973572#5 -37973572#4 -37973572#2 -659342830 -313087692 -313087693 -447699318#7 154844470#1 154844465#0 154844465#1 154844465#3 154844465#4 154844463#1 154844479#1 154844473 -369511961#14 -369511961#9 -369511961#5 -369511961#2 -369511961#1 -149868584#8 876531530#3 876531530#4 876531531 37640545#0 37640545#2 881916063#0 499688748#2 499688748#3 881916065#1 -327999345" probability="0.01" />
    <route edges="-34962531#1 -37973572#8 -37973572#7 -37973572#5 -37973572#4 -37973572#2 -659342830 -313087692 -313087693 -447699318#7 154844470#1 154844465#0 154844465#1 154844465#3 154844465#4 154844463#1 154844479#1 154844473 -369511961#14 -369511961#9 -369511961#5 -369511961#2 -369511961#1 -149868584#8 -149868584#7 -149868584#5 -149868584#3 -149868584#2 881245057#2 755147086#2 755147086#3" probability="0.01" />
    <route edges="-34962531#1 -37973572#8 -37973572#7 -37973572#5 130443630#7 130443630#9 179692877#0 179692877#2 42976406#6 42976406#7 154500706#2 154500706#3 154500706#4 8272412#0 8272412#1 8272412#2 8272412#3 876124551#0 876124549#0 876124549#1 876124550#0 160587545#0 160587545#1 160587545#2 160587545#3 160587545#4 862447326#0 862447326#1 862447327#0 862447327#1 862447327#2 756569654#0 756569654#1 756569654#2 28107383#0 28107383#1 28107383#2 756569657#0 756569657#1 756569657#2 756569657#3 881905851#0" probability="0.01" />
    <route edges="-34962531#1 -37973572#8 -37973572#7 81394192#12 81394192#14 37973571#0 -179917803#1 -179917803#0 -149819227#3 -149819227#2 -149819227#1 -149819227#0 106366571#0 106366571#1 37638470#2" probability="0.01" />
    <route edges="-34962531#1 -37973572#8 -37973572#7 -37973572#5 -37973572#4 -37973572#2 -659342830 -313087692 -313087693 -447699318#7 154844470#1 154844465#0 154844465#1 154844465#3 154844465#4 154844463#1 154844479#1 154844473 -369511961#14 -369511961#9 -369511961#5 -369511961#2 -369511961#1 -149868584#8 -149868584#7 -149868584#5 -149868584#3 -149868584#2 881245057#2 755147086#2 755147086#3 755147086#4 755147086#7 755147087 80451876#0 80451876#1 80451876#2 80451876#3 80451876#4 80451876#6 80451876#7" probability="0.01" />
    <route edges="-34962531#1 -37973572#8 -37973572#7 -37973572#5 130443630#7 130443630#9 179692877#0 179692877#2 42976406#6 42976406#7 154500706#2 154500706#3 154500706#4 8272412#0 8272412#1 8272412#2 8272412#3 876124551#0 876124549#0 876124549#1 876124550#0" probability="0.01" />
    <route edges="-34962531#1 -37973572#8 -37973572#7 -37973572#5 130443630#7 130443630#9 179692877#0 179692877#2 42976406#6 42976406#7 42976406#8 42976406#9 42976406#10 42976406#11 122301988#0 122301988#1 880555131#0 880555131#2 154500688#0 154500688#3 154500688#5 154500688#6 874006655 309843440#0 309843440#2 309843440#3 154881341#0 154881341#1 154881334#0 47092240#0 47092240#1 757788071#0 757788071#1 757788071#2 757788074#0 757788074#1 757788074#2 876131444 876131440 167693277#0 167693277#1 167693277#2 167693277#3 167693277#4 657150065#0 657150065#1 -369511399#9 -369511399#7 -369511399#5 369511399#5 369511399#7" probability="0.01" />
    <route edges="-34962531#1 -37973572#8 -37973572#7 -37973572#5 -37973572#4 -37973572#2 -659342830 -313087692 -313087693 -447699318#7 154844470#1 154844465#0 154844465#1 154844465#3 154844465#4 154844463#1 154844479#1 154844473 -369511961#14 -369511961#9 -369511961#5 -369511961#2 -369511961#1 -149868584#8 -149868584#7 -149868584#5 -149868584#3 -149868584#2 -756569653#9" probability="0.01" />
    <route edges="-34962531#1 -37973572#8 -37973572#7 -37973572#5 130443630#7 130443630#9 179692877#0 179692877#2 37638426#1 42976408#0 42976408#1" probability="0.01" />
    <route edges="-34962531#1 -37973572#8 -37973572#7 81394192#12 81394192#14 37973571#0 -179917803#1 -179917803#0 -149819227#3 -149819227#2 -149819227#1 -149819227#0 106366571#0 106366571#1 -37638470#1 -316299341" probability="0.01" />
    <route edges="-34962531#1 -37973572#8 -37973572#7 81394192#12 37973568#7 37973568#8" probability="0.01" />
    <route edges="-34962531#1 -37973572#8 -37973572#7 -37973572#5 -37973572#4 -37973572#2 -659342830 -313087692 -313087693 -447699318#7 154844470#1 154844465#0 154844465#1 154844465#3 154844465#4 154844463#1 154844479#1 154844473 -369511961#14 -369511961#9 -369511961#5 -369511961#2 -369511961#1 -149868584#8 -149868584#7 -149868584#5 -149868584#3 -149868584#2 881245057#2 755147086#2 755147086#3 755147086#4 755147086#7 -447701732 -379511956#11 -379511956#8" probability="0.01" />
    <route edges="-34962531#1 -37973572#8 -37973572#7 -37973572#5 -37973572#4 -37973572#2 -659342830 -313087692 -313087693 -447699318#7 154844470#1 154844465#0 154844465#1 154844465#3 154844465#4 154844463#1 154844479#1 154844473 -369511961#14 -369511961#9 -369511961#5 -369511961#2 -369511961#1 -149868584#8 -149868584#7 -149868584#5 -149868584#3 -149868584#2 -170590355#1 -356857809#5 356857809#4" probability="0.01" />
    <route edges="-34962531#1 -37973572#8 -37973572#7 -37973572#5 130443630#7 130443630#9 179692877#0 179692877#2 42976406#6 42976406#7 42976406#8 42976406#9 42976406#10 42976406#11 122301988#0 122301988#1 880555131#0 880555131#2 154500688#0 154500688#3 154500688#5 154500688#6 874024523 47289660#0 47289660#1" probability="0.01" />
    <route edges="-34962531#1 -37973572#8 -37973572#7 -37973572#5 -37973572#4 -37973572#2 -659342830 -313087692 -313087693 -447699318#7 154844470#1 154844465#0 154844465#1 154844465#3 154844465#4 154844463#1 154844479#1 154844473 -369511961#14 -369511961#9 -369511961#5 -369511961#2 876531527#3 876531527#4 876531528 876531525#0 876531525#1 876531525#2 876531529 37772603#0 37772603#1 37772603#2" probability="0.01" />
    <route edges="-34962531#1 37973572#9 37973572#10 37973572#12 37973572#14" probability="0.01" />
    <route edges="-34962531#1 -37973572#8 -37973572#7 -37973572#5 130443630#7 130443630#9 179692877#0 179692877#2 42976406#6 42976406#7 154500706#2 154500706#3 154500706#4 8272412#0 8272412#1 8272412#2 8272412#3 876124551#0 876124549#0 876124549#1 876124550#0 160587545#0 160587545#1 160587545#2 160587545#3 160587545#4 862447326#0 862447326#1 862447327#0 862447327#1 862447327#2 756569654#0 756569654#1 756569654#2 28107383#0 28107383#1 28107383#2 756569657#0 756569657#1 756569657#2 756569657#3 881905851#0 881905851#1 881905851#2 881905851#3 881905851#4" probability="0.01" />
    <route edges="-34962531#1 -37973572#8 -37973572#7 -37973572#5 130443630#7 130443630#9 179692877#0 179692877#2 42976406#6 42976406#7 42976406#8 42976406#9 42976406#10 42976406#11 94373194#3 378383744#0 378383744#1 379514452" probability="0.01" />
    <route edges="-34962531#1 -37973572#8 -37973572#7 -37973572#5 -37973572#4 -37973572#2 -659342830 -313087692 -313087693 -447699318#7 154844470#1 154844465#0 154844465#1 154844465#3 154844465#4 154844463#1 154844479#1 154844473 -369511961#14 -369511961#9 -369511961#5 -369511961#2 -369511961#1 170594819#1 170594819#2 170594819#3 170594819#4 170594819#5 170594819#6 170594819#8 -862454066 37640545#8 37640545#9 37640545#10 37640545#11 37640545#12 111649315#0" probability="0.01" />
    <route edges="-34962531#1 -37973572#8 -37973572#7 -37973572#5 -37973572#4 -37973572#2 42976406#0 37973568#12 659342849 37772596#0 37772596#2 37772596#3" probability="0.01" />
    <route edges="-34962531#1 -37973572#8 -37973572#7 -37973572#5 130443630#7 130443630#9 179692877#0 179692877#2 42976406#6 42976406#7 154500706#2 154500706#3 154500706#4 8272412#0 8272412#1 8272412#2 8272412#3 876124551#0 876124549#0 876124549#1 876124550#0 160587545#0 160587545#1 160587545#2 160587545#3 160587545#4 862447326#0 862447326#1 862447327#0 862447327#1 862447327#2 756569654#0 756569654#1 756569654#2 28107383#0 28107383#1 28107383#2 756569657#0 756569657#1 28107362#0 28107362#1" probability="0.01" />
    <route edges="-34962531#1 -37973572#8 -37973572#7 -37973572#5 130443630#7 130443630#9 179692877#0 179692877#2 42976406#6 42976406#7 154500706#2 154500706#3 154500706#4 8272412#0 8272412#1 8272412#2 8272412#3 81096816#5 81096816#7 81096816#8 81096816#9 81096816#10 95685945#0 95685945#1" probability="0.01" />
    <route edges="-34962531#1 -37973572#8 -37973572#7 -37973572#5 130443630#7 130443630#9 179692877#0 179692877#2 42976406#6 42976406#7 42976406#8 42976406#9 42976406#10 42976406#11 122301988#0 122301988#1 880555131#0 880555131#2 154500688#0 154500688#3 154500688#5 154500688#6 874006655 309843440#0 309843440#2 309843440#3 154881341#0 154881341#1 154881334#0 47092240#0 47092240#1 757788071#0 757788071#1 757788071#2 757788074#0 757788074#1 757788074#2 876131444 876131440 167693277#0 167693277#1 167693277#2 167693277#3 167693277#4 657150065#0 657150065#1 881245049#0 881245049#1 173271714#0 173271714#1 173271714#1-AddedOffRampEdge 173271714#2 173271714#3 173271714#4 173271714#5 881920740#0 881920740#1 22908661#0 22908661#1 257025801#0 257025801#2 257025802#0" probability="0.01" />
    <route edges="-34962531#1 -37973572#8 -37973572#7 -37973572#5 130443630#7 130443630#9 179692877#0 179692877#2 42976406#6 42976406#7 154500706#2 154500706#3 154500706#4 8272412#0 8272412#1 8272412#2 8272412#3 876124551#0 876124549#0 876124549#1 876124550#0 160587545#0 160587545#1 160587545#2 160587545#3 160587545#4 862447326#0 862447326#1 862447327#0 862447327#1 862447327#2 756569654#0 756569654#1 756569654#2 28107383#0 28107383#1 28107383#2 756569657#0 756569657#1 756569657#2 558288368#7 81124942#2" probability="0.01" />
    <route edges="-34962531#1 -37973572#8 -37973572#7 -37973572#5 -37973572#4 -37973572#2 -659342830 -313087692 -313087693 -447699318#7 154844470#1 154844465#0 154844465#1 154844465#3 154844465#4 154844463#1 154844479#1 154844473 -369511961#14 -369511961#9 -369511961#5 -369511961#2 -369511961#1 -170590353#19 -170590353#18 -170590353#17 -170590353#16" probability="0.01" />
    <route edges="-34962531#1 -37973572#8 -37973572#7 -37973572#5 130443630#7 130443630#9 179692877#0 179692877#2 42976406#6 42976406#7 42976406#8 42976406#9 42976406#10 42976406#11 122301988#0 122301988#1 880555131#0 880555131#2 154500688#0 746095034 369844983#0 369844983#2 876120662#0 876120662#1 876120662#2 876120662#3 876120663#0 876120663#1 876120663#2 876120663#3 876120663#4 876120663#5 37640550#0 37640550#1 37640550#2 37640550#3" probability="0.01" />
    <route edges="-34962531#1 -37973572#8 -37973572#7 -37973572#5 130443630#7 130443630#9 179692877#0 179692877#2 42976406#6 42976406#7 42976406#8 42976406#9 42976406#10 42976406#11 122301988#0 122301988#1 880555131#0 880555131#2 154500688#0 154500688#3 154500688#5 154500688#6 874006655 309843440#0 309843440#2 309843440#3 154881341#0 154881341#1 154881334#0 47092240#0 47092240#1 757788071#0 757788071#1 757788071#2 757788074#0 757788074#1 757788074#2 876131442#0 876131442#1 876131442#2 876131442#3 876120666 876120670#0 876120670#1 876120670#2 572328743 37140690 572328744#0 572328744#1 572328744#2 572328744#3 572328744#4 572328744#5 572328744#6 369511399#0 369511399#1" probability="0.01" />
    <route edges="-34962531#1 -37973572#8 -37973572#7 -37973572#5 130443630#7 130443630#9 179692877#0 179692877#2 42976406#6 42976406#7 42976406#8 42976406#9 42976406#10 42976406#11 122301988#0 122301988#1 880555131#0 880555131#2 154500688#0 746095034 369844983#0 369844983#2 876120662#0 876120662#1 876120662#2 876120662#3 876120663#0 876120663#1 876120663#2 876120663#3 876120663#4 876120663#5 37640550#0 37640550#1 876114770" probability="0.01" />
    <route edges="-34962531#1 -37973572#8 -37973572#7 -37973572#5 -37973572#4 -37973572#2 -659342830 -313087692 -313087693 -447699318#7 154844470#1 154844465#0 154844465#1 154844465#3 154844465#4 154844463#1 154844479#1 154844473 -369511961#14 873160682#0 873157351#0 149422199#0" probability="0.01" />
    <route edges="-34962531#1 -37973572#8 -37973572#7 -37973572#5 130443630#7 130443630#9 179692877#0 179692877#2 42976406#6 42976406#7 42976406#8 42976406#9 42976406#10 42976406#11 122301988#0 122301988#1 880555131#0 880555131#2 154500688#0 154500688#3 154500688#5 154500688#6 874006655 309843440#0 309843440#2 309843440#3 149417749#0 149417749#1 149417749#3 170590358#0 170590358#1 154881336 37856842 110681291 170590361#0 170590361#1 572328742#0 572328742#1 572328742#2" probability="0.01" />
    <route edges="-34962531#1 -37973572#8 -37973572#7 -37973572#5 -37973572#4 -37973572#2 -659342830 -313087692 -313087693 -447699318#7 154844470#1 154844465#0 154844465#1 154844465#3 154844465#4 154844463#1 154844479#1 154844473 -369511961#14 -369511961#9 -369511961#5 -369511961#2 -369511961#1 -149868584#8 -149868584#7 -149868584#5 -149868584#3 -149868584#2 881245057#2 755147086#2 319756521#10 319756521#11" probability="0.01" />
    <route edges="-34962531#1 -37973572#8 -37973572#7 -37973572#5 -37973572#4 -37973572#2 -659342830 -313087692 -313087693 -447699318#7 154844470#1 154844465#0 154844465#1 154844465#3 154844465#4 154844463#1 154844479#1 154844473 154844487#1 154844481 154844477 101272435#0 101272435#1 101272435#2 757788069#0 757788069#1 757788069#2 757788069#3 37771904#0 37771904#1" probability="0.01" />
    <route edges="-34962531#1 -37973572#8 -37973572#7 -37973572#5 130443630#7 130443630#9 179692877#0 179692877#2 42976406#6 42976406#7 154500706#2 154500706#3 154500706#4 8272412#0 8272412#1 8272412#2 8272412#3 876124551#0 876124549#0 876124549#1 876124550#0 160587545#0 160587545#1 160587545#2 160587545#3 160587545#4 37140611#5 37140611#6 37140611#7 -862447325#1 170590353#10 170590353#11" probability="0.01" />
    <route edges="-34962531#1 -37973572#8 -37973572#7 -37973572#5 -37973572#4 -37973572#2 -659342830 -313087692 -313087693 42976410#0 42976410#2" probability="0.01" />
    <route edges="-34962531#1 -37973572#8 -37973572#7 -37973572#5 -37973572#4 -37973572#2 42976406#0 37973568#12 659342849 37772596#0" probability="0.01" />
    <route edges="-34962531#1 -37973572#8 -37973572#7 -37973572#5 -37973572#4 -37973572#2" probability="0.01" />
    <route edges="-34962531#1 -37973572#8 -37973572#7 -37973572#5 -37973572#4 -37973572#2 -659342830 -313087692 -313087693 -447699318#7 154844470#1 154844465#0 154844465#1 154844465#3 154844465#4 154844463#1 154844479#1 154844473 -369511961#14 -369511961#9 -369511961#5 -369511961#2 -369511961#1 -149868584#8 -149868584#7 -149868584#5 -149868584#3 -149868584#2 881245057#2 755147086#2 755147086#3 755147086#4 755147086#7 755147087 80451876#0 80451876#1 80451876#2 80451876#3 80451876#4" probability="0.01" />
    <route edges="-34962531#1 -37973572#8 -37973572#7 -37973572#5 130443630#7 130443630#9 179692877#0 179692877#2 42976406#6 42976406#7 42976406#8 42976406#9 42976406#10 42976406#11 122301988#0 122301988#1 880555131#0 880555131#2 154500688#0 154500688#3 154500688#5 154500688#6 874006655 309843440#0 309843440#2 309843440#3 154881341#0 154881341#1 154881334#0 47092240#0 47092240#1 757788071#0 757788071#1 757788071#2 757788074#0 757788074#1 757788074#2 876131444 876131440 167693277#0 167693277#1 167693277#2 167693277#3 167693277#4 657150065#0 657150065#1 881245049#0 881245049#1 173271714#0 173271714#1 173271714#1-AddedOffRampEdge 173271714#2 42246159 38228095#0" probability="0.01" />
    <route edges="-34962531#1 -37973572#8 -37973572#7 -37973572#5 130443630#7 130443630#9 179692877#0 179692877#2 42976406#6 42976406#7 42976406#8 42976406#9 42976406#10 42976406#11 122301988#0 122301988#1 880555131#0 880555131#2 154500688#0 154500688#3 154500688#5 154500688#6 874006655 309843440#0 309843440#2 309843440#3 154881341#0 154881341#1 154881334#0 47092240#0 47092240#1 757788071#0 757788071#1 757788071#2 757788074#0 757788074#1 757788074#2 876131444 876131440 876131441 657572415#0 657572415#1" probability="0.01" />
    <route edges="-34962531#1 -37973572#8 -37973572#7 -37973572#5 130443630#7 130443630#9 179692877#0 179692877#2 42976406#6 42976406#7 154500706#2 154500706#3 154500706#4 8272412#0 8272412#1 8272412#2 8272412#3 876124551#0 876124549#0 876124549#1 876124550#0 160587545#0 160587545#1 160587545#2 160587545#3 160587545#4 862447326#0 862447326#1 862447327#0 862447327#1 862447327#2 756569654#0 756569654#1 756569654#2 -173211625#3 -173211625#2 -173211625#1 -173211625#0 -487814040#6 -487814040#5 -487814040#4" probability="0.01" />
    <route edges="-34962531#1 -37973572#8 -37973572#7 -37973572#5 130443630#7 130443630#9 179692877#0 179692877#2 42976406#6 42976406#7 42976406#8 42976406#9 42976406#10 42976406#11 122301988#0 122301988#1 880555131#0 880555131#2 154500688#0 154500688#3 154500688#5 154500688#6 874006655 309843440#0 309843440#2 309843440#3 154881341#0 154881341#1 154881334#0 47092240#0 47092240#1 757788071#0 757788071#1 757788071#2 757788074#0 757788074#1 757788074#2 876131444 876131440 167693277#0 167693277#1 167693277#2 167693277#3 167693277#4 657150065#0 657150065#1 881245049#0 881245049#1 881245050 487814039#0 487814039#1 487814039#2 487814039#3 487814039#4" probability="0.01" />
    <route edges="-34962531#1 -37973572#8 -37973572#7 -37973572#5 -37973572#4 -37973572#2 -659342830 -313087692 -313087693 -447699318#7 154844470#1 154844465#0 154844465#1 154844465#3 154844465#4 154844463#1 154844479#1 154844473 -369511961#14 -369511961#9 -369511961#5 -369511961#2 -369511961#1 170594819#1 170594819#2 170594819#3 170594819#4 170594819#5 170594819#6 170594819#8 -170594819#8" probability="0.01" />
    <route edges="-34962531#1 -37973572#8 -37973572#7 -37973572#5 130443630#7 130443630#9 179692877#0 179692877#2 42976406#6 42976406#7 42976406#8 42976406#9 42976406#10 42976406#11 122301988#0 122301988#1 880555131#0 880555131#2 154500688#0 154500688#3 154500688#5 154500688#6 874006655 309843440#0 309843440#2 309843440#3 154881341#0 154881341#1 154881334#0 47092240#0 47092240#1 757788071#0 757788071#1 757788071#2 757788074#0 757788074#1 757788074#2 876131444 876131440 167693277#0 167693277#1 167693277#2 167693277#3 167693277#4 657150065#0 657150065#1 881245049#0 881245049#1 173271714#0 173271714#1 173271714#1-AddedOffRampEdge 173271714#2 173271714#3 173271714#4 173271714#5 881920740#0 881920740#1 22908661#0 22908661#1 170594817 257025800#0 257025800#2 257025800#3 257025800#4 -28193042#0 38163353#2 253940386#0 253940386#1" probability="0.01" />
    <route edges="-34962531#1 -37973572#8 -37973572#7 -37973572#5 -37973572#4 -37973572#2 -659342830 -313087692 -313087693 -447699318#7 154844470#1 154844465#0 154844465#1 154844465#3 154844465#4 154844463#1 154844479#1 154844473 -369511961#14 -369511961#9 -369511961#5 -369511961#2 -369511961#1 170594819#1 170594819#2 170594819#3 170594819#4 170594819#5 170594819#6 170594819#8 23182640#0 37640546#2 37640546#3 123180720#0" probability="0.01" />
    <route edges="-34962531#1 -37973572#8 -37973572#7 81394192#12 81394192#14 37973571#0 -179917803#1 -179917803#0 -149819227#3 -149819227#2 -149819227#1 -149819227#0 106366571#0 106366571#1 -37638470#1 -316299341" probability="0.01" />
    <route edges="-34962531#1 -37973572#8 -37973572#7 -37973572#5 -37973572#4 -37973572#2 -659342830 -313087692 -313087693 -447699318#7 154844470#1 154844465#0 154844465#1 154844465#3 154844465#4 154844463#1 154844479#1 154844473 -369511961#14 -369511961#9 -369511961#5 -369511961#2 -369511961#1 -149868584#8 876531530#3 876531530#4 876531531 37640545#0 37640545#2 881916063#0 499688748#2 499688748#3" probability="0.01" />
    <route edges="-34962531#1 -37973572#8 -37973572#7 -37973572#5 -37973572#4 -37973572#2 -659342830 -313087692 -313087693 -447699318#7 154844470#1 154844465#0 154844465#1 154844465#3 154844465#4 154844463#1 154844479#1 154844473 -369511961#14 -369511961#9 -369511961#5 -369511961#2 -369511961#1 -149868584#8 149868584#8 369511961#1 369511961#2 369511961#4" probability="0.01" />
    <route edges="-34962531#1 -37973572#8 -37973572#7 81394192#12 81394192#14 37973571#0 -179917803#1 -179917803#0 -149819227#3 -149819227#2 -149819227#1 -149819227#0 106366571#0" probability="0.01" />
    <route edges="-34962531#1 -37973572#8 -37973572#7 -37973572#5 130443630#7 130443630#9 179692877#0 179692877#2 42976406#6 42976406#7 154500706#2 154500706#3 154500706#4 8272412#0 8272412#1 24573930#3 24573930#4 24573930#5 877288370#0 877288370#1 877288370#2 234298685#0 234298685#1" probability="0.01" />
    <route edges="-34962531#1 -37973572#8 -37973572#7 -37973572#5 -37973572#4 -37973572#2 -659342830 -313087692 -313087693 -447699318#7 -447699318#2 447699317#2 447699317#5" probability="0.01" />