<configuration xmlns:xsi="http://www.w3.org/2001/XMLSchema-instance"
xsi:noNamespaceSchemaLocation="http://sumo.dlr.de/xsd/sumoConfiguration.xsd">

    <input>
        <net-file value="map.net.xml"/>
        <route-files value="map.rou.xml, cal.rou.xml"/>
	    <additional-files value="map.poly.xml, cal_add.xml"/>
    </input>

    <time>
        <begin value="0"/>
        <end value="1000000"/>
	<step-length value="0.1" />
    </time>
</configuration>

