<?xml version="1.0" encoding="UTF-8"?>

<!-- generated on Mon Feb 21 12:41:57 2022 by Eclipse SUMO duarouter Version 1.8.0
<configuration xmlns:xsi="http://www.w3.org/2001/XMLSchema-instance" xsi:noNamespaceSchemaLocation="http://sumo.dlr.de/xsd/duarouterConfiguration.xsd">

    <input>
        <net-file value="utils/map.net.xml"/>
        <route-files value="./utils/deafult2.trips.xml"/>
    </input>

    <output>
        <output-file value="utils/map.rou.xml"/>
        <alternatives-output value="utils/map.rou.alt.xml"/>
    </output>

    <time>
        <begin value="0"/>
        <end value="3600"/>
    </time>

    <report>
        <no-warnings value="true"/>
        <ignore-errors value="true"/>
        <no-step-log value="true"/>
    </report>

</configuration>
-->

<routes xmlns:xsi="http://www.w3.org/2001/XMLSchema-instance" xsi:noNamespaceSchemaLocation="http://sumo.dlr.de/xsd/routes_file.xsd">
    <vehicle id="0" depart="0.00">
        <route edges="170590353#4 170590353#5 170590353#7 -170590353#7 -170590353#5 -170590353#4 -170590353#3 -170590353#2 -170590353#0 876131443 876131445 876131444 876131440 167693277#0 167693277#1 167693277#2 167693277#3 167693277#4 657150065#0 657150065#1 881245049#0 881245049#1 173271714#0 173271714#1 173271714#1-AddedOffRampEdge 173271714#2 173271714#3 173271714#4 173271714#5 881920740#0 567161016#0"/>
    </vehicle>
    <vehicle id="1" depart="2.00">
        <route edges="28107377#2 558288366#3 558288368#0 558288368#5 105377039#1 105377039#2 105377027#0 105377027#1 28107392#0 28107392#1 28107392#2 -756569653#2 -756569653#0 -173211625#3 -173211625#2 -173211625#1 -173211625#0 -487814040#6 -487814040#5 -487814040#4 -487814040#3 -487814040#2 -487814040#1 -487814040#0 173211619#0 173211619#1 657150061#0 657150061#1 657150061#2 657150061#3 657150061#4 876131439 876131443 170590356#0 170590356#1 170590356#2 170590356#3 170590356#4 170590356#5 37856843#0 80347021#0 80347021#3 59159265#0 24573897 499694884#0"/>
    </vehicle>
    <vehicle id="2" depart="4.00">
        <route edges="881905851#4 881905851#5 881905851#6 855883542#0 855883542#2 855883542#3 855883542#4 855883542#5 855883542#6 855883542#8 487814041#0 487814041#1 23566893#0 23566893#1 756569652#0 756569652#1 480987084#0 480987084#1 480987084#2 151167657#0 170590353#8 170590353#9 170590353#10 170590353#11 170590353#12 170590353#13 170590353#14 170590353#16 170590353#17 170590353#18 170590353#19 369511961#1 369511961#2 369511961#4 369511961#6 369511961#10"/>
    </vehicle>
    <vehicle id="3" depart="6.00">
        <route edges="23262356#1 23262356#2 23262356#3 23262356#6 81124946#0 149422211#4 149422211#5 149422211#6 170590356#5"/>
    </vehicle>
    <vehicle id="4" depart="8.00">
        <route edges="37640546#1 37640546#2 37771904#7 -170594819#8 -170594819#6 -170594819#5 -170594819#4 -170594819#3 -170594819#2 -170594819#1 -170590353#19 -170590353#18 -170590353#17 -170590353#16 -170590353#14 -170590353#13 -170590353#12 -170590353#11 -170590353#10 -170590353#9 -170590353#8 -170590353#7 -170590353#5 -170590353#4 -170590353#3 -170590353#2 -170590353#0 876131443 876131445 876131444 876131440 167693277#0 167693277#1 167693277#2 167693277#3 167693277#4 657150065#0 657150065#1 881245049#0 881245049#1 173271714#0 173271714#1 173271714#1-AddedOffRampEdge 173271714#2 173271714#3 173271714#4 173271714#5 881920740#0 881920740#1 22908661#0 22908661#1 170594817 257025800#0 257025800#2 257025800#3 257025800#4 -28193042#0 38163353#2"/>
    </vehicle>
    <vehicle id="5" depart="10.00">
        <route edges="101272426#0 -873160682#1 -369511961#9 -369511961#5 -369511961#2 -369511961#1 -149868584#8 -149868584#7 -149868584#5 -149868584#3 -149868584#2 881245057#2 755147086#2 755147086#3 755147086#4 755147086#7 -447701732 -379511956#11 -379511956#8 -379511956#7 -379511956#6 -379511956#5 379511956#5 379511956#6 379511956#7"/>
    </vehicle>
    <vehicle id="6" depart="12.00">
        <route edges="81394192#14 37973571#0 179692877#0 179692877#2 42976406#6 42976406#7 42976406#8 42976406#9 42976406#10 42976406#11 122301988#0 122301988#1 880555131#0 880555131#2 154500688#0 154500688#3 154500688#5 154500688#6 874006655 309843440#0 309843440#2 309843440#3 154881341#0 154881341#1 154881334#0 47092240#0 47092240#1 757788071#0 757788071#1 757788071#2 757788074#0 757788074#1 757788074#2 876131444 876131440 167693277#0 167693277#1 167693277#2 167693277#3 167693277#4 657150065#0 657150065#1 881245049#0 881245049#1 173271714#0 173271714#1 173271714#1-AddedOffRampEdge 173271714#2 173271714#3 173271714#4 173271714#5 881920740#0 567161016#0 567161016#3"/>
    </vehicle>
    <vehicle id="7" depart="14.00">
        <route edges="881905852#0 881905852#1 881905852#2 881905852#3 881905852#4 881905853 881920740#1 22908661#0 22908661#1 257025801#0 257025801#2 257025802#0 257025802#1 257025802#2 379511956#0 379511956#1 379511956#2 379511956#4 880575682#0 880575682#1 880575682#2 881905851#3 881905851#4"/>
    </vehicle>
    <vehicle id="8" depart="16.00">
        <route edges="149419438#0 149419438#2 37856842 154881337 31768459#0 31768459#2 31768459#3 31768459#4 31768459#5 154881334#0 154881335 149415691#0 149415691#3 149415691#4 -23262356#8 -23262356#7 -23262356#6 -23262356#3 -23262356#2 -23262356#1 -873157351#4 -873157351#3 -873157351#2 -873160682#1 -369511961#9 -369511961#5 -369511961#2 -369511961#1 -149868584#8 -149868584#7 -149868584#5 -149868584#3 -149868584#2 -170590355#1 -356857809#5 -356857809#3 -356857809#2 -356857808#7 -356857808#5 -356857808#4 -356857808#3 -356857808#2 -356857808#0 -111649347#1 -111649347#0 -178996141#6 -178996141#4"/>
    </vehicle>
    <vehicle id="9" depart="18.00">
        <route edges="558288368#6 558288368#7 81124942#2 81124942#3 880575681#0 880575681#1 880575681#2 880575681#3 880575681#4 880575681#5 880575680 880555130 862447325#0 862447325#1 862447324#0 862447324#1 862447324#2 862447324#3 37640550#7 37640550#8 37640550#11 37640550#13 876131437#0 876131437#1 154844479#1 154844473 -369511961#14"/>
    </vehicle>
    <vehicle id="10" depart="20.00">
        <route edges="657150063#1 657150063#2 572328744#5 572328744#6 369511399#0 369511399#1 369511399#2 369511399#3 862454068#2 862454068#3 862454067#0 862454067#1 862454067#2 862454067#3 862447334#0 862447334#1 862447333#0 862447333#1 862447333#2 862447333#3 862447333#4 862447333#5 31768459#4 31768459#5 154881334#0 154881335 37856843#0 80347021#0 80347021#3 80347021#4 37449247#0 37449247#2 37449247#5 37449247#8 37449247#9 37449247#10 37449247#11 37449247#12 122301994#0 122301994#1 122301994#2 122301994#3 154500706#3 154500706#4 8272412#0 8272412#1 8272412#2"/>
    </vehicle>
    <vehicle id="12" depart="24.00">
        <route edges="37772595#8 154844477 154844489#0 154844486 154844461#2 101272429#0 101272429#2 101272429#3 37973569 659342832#0 748671321#4 42976406#0 42976406#2 42976406#4 42976406#5 42976406#6 42976406#7 42976406#8 42976406#9 42976406#10 42976406#11 94373194#3 378383744#0 378383744#1 379514452 -40196941"/>
    </vehicle>
    <vehicle id="13" depart="26.00">
        <route edges="37973568#4 37973568#7 -130443630#8 -130443630#6 -130443630#4"/>
    </vehicle>
    <vehicle id="14" depart="28.00">
        <route edges="356857808#4 356857808#5 356857808#6 356857809#0 356857809#3 356857809#4 103851605 881245057#2 755147086#2 319756521#10 319756521#11 319756521#12 222769031 756569657#1 28107362#0 28107362#1"/>
    </vehicle>
    <vehicle id="15" depart="30.00">
        <route edges="37973568#1 37973568#2 37973568#3 37973568#4 37973568#7 37973568#8 37973568#12 659342849 37772596#0 37772596#2 37772596#3 37772596#5 154844465#1 154844465#3 154844465#4 154844463#1 154844479#1 154844473 154844487#1 154844481 154844477 154844489#0 154844486 154844461#2 101272429#0 23182589#0 23182589#1 24319547#0 24319547#1"/>
    </vehicle>
    <vehicle id="16" depart="32.00">
        <route edges="37278470#1 37278470#2 37278470#3 37278470#4 37278470#5 697584770#0 697584770#1 697584770#2 697584770#3 697584770#4 154881337 31768459#0 31768459#2 31768459#3 31768459#4 31768459#5 154881334#0 47092240#0 47092240#1 757788071#0 757788071#1 757788071#2 757788074#0 757788074#1 757788074#2 876131444 876131440 167693277#0 167693277#1 167693277#2 167693277#3 167693277#4 657150065#0 657150065#1 881245049#0 881245049#1 173271714#0 173271714#1 173271714#1-AddedOffRampEdge 173271714#2 173271714#3 173271714#4 173271714#5 881920740#0 881920740#1 22908661#0 22908661#1 170594817 881905848#2 881905849 38228091#0 38228091#1 38228091#2 38228091#3 38228091#4 481224918 -481224918"/>
    </vehicle>
    <vehicle id="17" depart="34.00">
        <route edges="672547556#1 672547556#2 672547556#3 40271561#2 40271561#3 873278976#3 50338704#0 672547557#0 672547557#1 154881336 37856842 154881337 31768459#0 31768459#2 31768459#3 31768459#4 31768459#5 154881334#0 47092240#0 47092240#1 757788071#0 757788071#1 757788071#2 757788074#0 757788074#1 757788074#2 876131444 876131440 167693277#0 167693277#1 167693277#2 167693277#3 167693277#4 880575676#0 880575676#1"/>
    </vehicle>
    <vehicle id="18" depart="36.00">
        <route edges="37772595#6 37772595#8 154844477 154844489#0 154844486 154844461#2 154844461#3 154844470#0 154844470#1 154844465#0 154844465#1 154844465#3 154844465#4 154844463#1 154844479#1 154844473 -369511961#14 -369511961#9 -369511961#5 -369511961#2 -369511961#1 -149868584#8 876531530#3 876531530#4 876531531 37640545#0 37640545#2 881916063#0 499688748#2 499688748#3"/>
    </vehicle>
    <vehicle id="19" depart="38.00">
        <route edges="111649306#1 111649306#2 111649306#3 111649306#4 111649306#5 111649306#7 111649306#9 881916064#0 881916064#1 881916064#2 881916064#3 881916064#4 881916064#5 28107377#0 28107377#1"/>
    </vehicle>
    <vehicle id="20" depart="40.00">
        <route edges="151167656#2 746095034 369844983#0 369844983#2 876120662#0 876120662#1 876120662#2 876120662#3 876120663#0 876120663#1 876120663#2 876120663#3 876120663#4 876120663#5 746095033#0 746095033#1 746095033#2 746095033#3 746095033#4 862447330#0 862447330#1 862447331#0 862447331#1 862447331#2 862447331#3 862447331#4 487814040#3 487814040#4 487814040#5 487814040#6 173211625#0 173211625#1 173211625#2 173211625#3 28107383#0 28107383#1 28107383#2 756569657#0 756569657#1 756569657#2 756569657#3 881905851#0"/>
    </vehicle>
    <vehicle id="21" depart="42.00">
        <route edges="233889489 37638470#0 37638470#1 37638470#2 37638470#3 154500706#0 154500706#1 42976406#8 42976406#9 42976406#10 42976406#11 122301988#0 122301988#1 880555131#0 880555131#2 154500688#0 154500688#3 154500688#5 154500688#6 874024523 47289660#0 47289660#1 47289660#2 80347016#0 80347016#1 80347016#2"/>
    </vehicle>
    <vehicle id="22" depart="44.00">
        <route edges="319758090#0 319758090#1 319758090#2 319758090#3 881916068#0 881916068#1 881916068#2 356857808#4 356857808#5 356857808#6 356857809#0 356857809#3 356857809#4 881905842#2 881905841 877851357#0 877851357#1 149868584#3 149868584#4 149868584#7 149868584#8 369511961#1 369511961#2 369511961#4 369511961#6 369511961#10 154844487#1 154844481 154844477 154844489#0 154844486 154844461#2 101272429#0 101272429#2 101272429#3 37973569 659342832#0 748671321#4 -659342830 -313087692 -313087693 -447699318#7"/>
    </vehicle>
    <vehicle id="24" depart="48.00">
        <route edges="881245053#0 881245053#1 881245053#2 862454068#0 862454068#1 369511399#4 369511399#5 369511399#7 369511399#9 173271715 487814040#0 487814040#1 487814040#2 487814040#3 487814040#4 487814040#5 487814040#6 173211625#0 173211625#1 173211625#2 173211625#3 756569653#0 756569653#2 756569653#3 756569653#4 756569653#5 756569653#8 -170590355#1 -356857809#5 881916064#3 881916064#4 881916064#5 28107377#0 28107377#1 28107377#2 558288366#3"/>
    </vehicle>
    <vehicle id="25" depart="50.00">
        <route edges="81394192#0 81394192#2 81394192#3 81394192#5 81394192#6 81394192#7 81394192#10 -37973572#5 130443630#7 130443630#9 179692877#0 179692877#2 42976406#6 42976406#7 42976406#8 42976406#9 42976406#10 42976406#11 122301988#0 122301988#1 880555131#0 880555131#2 154500688#0 746095034 369844983#0 369844983#2 876120662#0 876120662#1 876120662#2 876120662#3 876120663#0 876120663#1 876120663#2 876120663#3 876120663#4 876120663#5 746095033#0 746095033#1 23262356#8"/>
    </vehicle>
    <vehicle id="26" depart="52.00">
        <route edges="257025802#0 257025802#1 257025802#2 -316039069 316039069 379511957#0 379511957#1 379511957#2 855883542#0 855883542#2 855883542#3 855883542#4 855883542#5 855883542#6 855883542#8 487814041#0 487814041#1 23566893#0 23566893#1 756569652#0 756569652#1 480987084#0 480987084#1 480987084#2 151167657#0 151167657#1 862447329#0 862447329#1 862447329#2 862447329#3 862447329#6 862447329#7 151167659#0 151167659#1 151167659#2 240482839 876124552#0 876124552#1 173528288#0 173528288#1 173528288#2 173528288#3 173528288#4 877288371#0 877288371#1 877288371#2 94373194#0 94373194#1 94373194#2 122301988#0 122301988#1 880555131#0 880555131#2 154500688#0"/>
    </vehicle>
    <vehicle id="27" depart="54.00">
        <route edges="748671330 748671340#0 748671340#1 748671343#0 659342832#3 659342832#4 659342832#5 659342832#6 130443630#5 -37973572#4 -37973572#2 -659342830 -313087692 -313087693 -447699318#7 154844470#1 154844465#0 154844465#1 154844465#3 154844465#4 154844463#1 154844479#1 154844473 154844487#1 154844481 154844477 101272435#0 101272435#1 101272435#2 757788069#0 757788069#1 757788069#2 757788069#3 37771904#0"/>
    </vehicle>
    <vehicle id="28" depart="56.00">
        <route edges="356857808#4 356857808#5 356857808#6 356857809#0 356857809#3 356857809#4 103851605 881245057#2 755147086#2 755147086#3 755147086#4 755147086#7 -447701732 -379511956#11 -379511956#8 -379511956#7 -379511956#6 -379511956#5 80728666#0 80728666#1 80728666#2 80728666#3 881679704 881679705"/>
    </vehicle>
    <vehicle id="30" depart="60.00">
        <route edges="111649306#10 111649306#11 881905841 877851357#0 877851357#1 877851357#2 877851357#3 877851358 557627562 -756569653#7 -756569653#4 -756569653#3 -756569653#2 -756569653#0 -173211625#3 -173211625#2 -173211625#1 -173211625#0 -487814040#6 -487814040#5 -487814040#4 -487814040#3 -487814040#2 -487814040#1 -487814040#0 173211619#0 173211619#1 657150061#0 657150061#1 657150061#2 657150061#3 657150061#4 876131439 876131443 170590356#0 170590356#1 170590356#2 170590356#3 170590356#4 170590356#5 37856843#0 154881339#0 149417749#0 149417749#1 149417749#3 170590358#0 170590358#1 154881336 37856842 154881337 31768459#0 31768459#2"/>
    </vehicle>
    <vehicle id="31" depart="62.00">
        <route edges="876131442#1 876131442#2 876131442#3 876120666 -862447334#1 351678831#4 351678831#5 351678831#7 351678831#8 351678831#9 167693273 170590353#0 170590353#2 170590353#3 170590353#4 170590353#5 170590353#7 170590353#8 170590353#9 862447325#1 862447324#0 757788073#1 757788073#2 -149422199#1 -149422199#0 873157351#3"/>
    </vehicle>
    <vehicle id="32" depart="64.00">
        <route edges="319756521#0 319756521#1 319756521#2 319756521#3 319756521#4 28107370#1 28107370#2 558288366#1 28107371#1"/>
    </vehicle>
    <vehicle id="34" depart="68.00">
        <route edges="170594819#10 170594819#12 -170594819#12 -170594819#10 -170594819#8 -170594819#6 -170594819#5 -170594819#4 -170594819#3 -170594819#2 -170594819#1 -149868584#8 -149868584#7 -149868584#5 -149868584#3 -149868584#2 -756569653#9 -756569653#7 -756569653#4 -756569653#3 -756569653#2 -756569653#0 -173211625#3 173211625#3"/>
    </vehicle>
    <vehicle id="35" depart="70.00">
        <route edges="-8272429#2 -8272429#0 356857808#0 356857808#2 356857808#3 881916068#3 881916068#4 881916068#5 881916067#0 881916067#1 881916067#2 862454066 -170594819#8"/>
    </vehicle>
    <vehicle id="36" depart="72.00">
        <route edges="-447699318#7 154844470#1 154844465#0 154844465#1 154844465#3 154844465#4 154844463#1 154844479#1 154844473 -369511961#14 -369511961#9 -369511961#5 -369511961#2 -369511961#1 -170590353#19 -170590353#18 -170590353#17 -170590353#16"/>
    </vehicle>
    <vehicle id="37" depart="74.00">
        <route edges="173271714#2 173271714#3 173271714#4 173271714#5 881920740#0 881920740#1 170594828#0 170594828#1 170594828#2 170594828#3 170594828#4 170594828#5 170594828#6 170594828#7 170594828#8 881245048#0 881245048#1 173211619#0 173211619#1 657150061#0 657150061#1 657150061#2 657150061#3 657150061#4 876131439 170590353#0 170590353#2 170590353#3 170590353#4 170590353#5 170590353#7 151167657#1 862447329#0 862447329#1 862447329#2 149422211#2 149422211#3 81124946#1"/>
    </vehicle>
    <vehicle id="38" depart="76.00">
        <route edges="24573930#0 24573905#2 24573905#3 757059565#2 37772596#0 37772596#2 37772596#3 37772596#5 154844465#1 154844465#3 154844465#4 154844463#1 154844479#1 154844473 -369511961#14 -369511961#9 -369511961#5 -369511961#2 -369511961#1 -149868584#8 876531530#3 876531530#4 876531531 37640545#0 37640545#2 881916063#0 499688748#2 499688748#3 499688748#4 881916067#2"/>
    </vehicle>
    <vehicle id="39" depart="78.00">
        <route edges="757788073#2 149422199#2 37140611#2 37140611#3 37140611#4 862447326#0 862447326#1 862447327#0 862447327#1 43018568#1 43018568#2"/>
    </vehicle>
    <vehicle id="40" depart="80.00">
        <route edges="170590356#5 149415691#0 149415691#3 149415691#4 -23262356#8 -23262356#7 -23262356#6 -23262356#3 -23262356#2 -23262356#1 -873157351#4 -873157351#3 -873157351#2 -873160682#1 -369511961#9 -369511961#5 -369511961#2 -369511961#1 170594819#1 170594819#2 170594819#3 170594819#4 170594819#5 170594819#6 170594819#8 -862454066 37640545#8 37640545#9 37640545#10 178996141#0 178996141#2 178996141#3 -178996141#3 -178996141#2"/>
    </vehicle>
    <vehicle id="41" depart="82.00">
        <route edges="-149422195#1 -149422195#0 23566902 37640550#13 876131437#0 876131437#1 154844479#1 154844473 154844487#1 154844481 154844477 154844489#0 154844486 154844461#2 154844461#3 154844470#0 447699318#3 313087693 313087692 659342830 37973572#0 37973572#4 130443630#7 37973568#8"/>
    </vehicle>
    <vehicle id="43" depart="86.00">
        <route edges="23262356#6 -23262356#6 -23262356#3 -23262356#2 -23262356#1 -873157351#4 -873157351#3 -873157351#2 -873160682#1 -369511961#9 -369511961#5 -369511961#2 -369511961#1 -149868584#8 -149868584#7 -149868584#5 -149868584#3 -149868584#2 -170590355#1 -356857809#5 -356857809#3 -356857809#2 -356857808#7 -356857808#5 -356857808#4 -356857808#3 -356857808#2 -356857808#0 881916069#0 881916069#1 373249644#0 373249644#2 373249644#3 373249644#4 373249644#5 -373249644#5"/>
    </vehicle>
    <vehicle id="44" depart="88.00">
        <route edges="-83051447#2 37771904#2 37771904#3 37771904#4 37771904#5 37771904#6 37640546#3 37640546#4 37640546#5 37640546#6 37640546#7 37640546#8 37640546#9 37640546#10 37640546#11 876531526#0 876531526#1 37772595#0 37772595#1 37772595#3 37772595#6 37772595#8 154844477 154844489#0 154844486 154844461#2 101272429#0 101272429#2 101272429#3 37973569 659342832#0 659342832#1 659342832#3 659342832#4 659342832#5 659342832#6 659342832#9 659342832#10 659342832#12 659342832#13 659342832#14 659342832#15"/>
    </vehicle>
    <vehicle id="45" depart="90.00">
        <route edges="748671343#0 659342832#3 659342832#4 659342832#5 659342832#6 130443630#5 -37973572#4 -37973572#2 -659342830 -313087692 -313087693 -447699318#7 154844470#1 154844465#0 154844465#1 154844465#3 154844465#4 154844463#1 154844479#1 154844473 -369511961#14 -369511961#9 -369511961#5 -369511961#2 -369511961#1 -149868584#8 -149868584#7 -149868584#5 -149868584#3 -149868584#2 -170590355#1 -356857809#5 -356857809#3 -356857809#2 -356857808#7 881916066#3 881916066#4 881916066#5 757788076#0 757788076#1 757788075#0 757788075#1"/>
    </vehicle>
    <vehicle id="46" depart="92.00">
        <route edges="-28107409#1 -28107409#0 657572415#15 657572415#16 876531529 876531530#0 876531530#1 876531530#2 149868584#8 -170590353#19 -170590353#18 -170590353#17 -170590353#16 -170590353#14 862447326#1 862447327#0 862447327#1"/>
    </vehicle>
    <vehicle id="47" depart="94.00">
        <route edges="-178996141#4 178996141#4 178996141#6 111649306#0 111649306#1 111649306#2 881916067#0 881916067#1 881916067#2 862454066 -170594819#8 -170594819#6 -170594819#5 -170594819#4 -170594819#3 -170594819#2 -170594819#1 369511961#1 369511961#2 369511961#4 369511961#6 369511961#10 369511961#15 447699318#2 447699318#3 313087693 313087692 659342830 37973572#0 37973572#4 130443630#7 37973568#8"/>
    </vehicle>
    <vehicle id="48" depart="96.00">
        <route edges="-356857808#4 356857808#4 356857808#5 356857808#6 356857809#0 356857809#3 356857809#4 881905842#2 881905841 877851357#0 877851357#1 877851357#2 877851357#3 877851358 487814036#0 487814036#2 487814036#3"/>
    </vehicle>
    <vehicle id="49" depart="98.00">
        <route edges="95685945#0 499694884#2 499694884#3 499694884#4 8272412#3 876124551#0 876124549#0 876124549#1 876124550#0 160587545#0 160587545#1 160587545#2 160587545#3 160587545#4 37140611#5 37140611#6 37140611#7 -862447325#1 170590353#10 170590353#11"/>
    </vehicle>
    <vehicle id="50" depart="100.00">
        <route edges="28107371#0 28107371#1 28107371#2 28107371#3 639682445#0 356857809#0 356857809#3 356857809#4 103851605 -756569653#9 -756569653#7 -756569653#4 -756569653#3 -756569653#2 -756569653#0 -173211625#3 -173211625#2 -173211625#1 -173211625#0 -487814040#6 -487814040#5 -487814040#4 -487814040#3 -487814040#2 -487814040#1 -487814040#0 173211619#0 173211619#1 657150061#0 657150061#1 657150061#2 657150061#3 657150061#4 876131439 876131443 170590356#0 170590356#1 170590356#2 170590356#3 170590356#4 170590356#5 37856843#0 80347021#0 80347021#3 59159265#0 499694885#0"/>
    </vehicle>
    <vehicle id="51" depart="102.00">
        <route edges="81096816#2 876124551#0 160587538#1 160587538#5 447699317#2 -447699317#2"/>
    </vehicle>
    <vehicle id="52" depart="104.00">
        <route edges="487814040#0 487814040#1 487814040#2 -487814040#2 -487814040#1 -487814040#0 173211619#0 173211619#1 657150061#0 657150061#1 657150061#2 657150061#3 657150061#4 876131439 876131443 170590356#0 170590356#1 170590356#2 170590356#3 170590356#4 170590356#5 37856843#0 80347021#0 80347021#3 80347021#4 37449247#0 37449247#2 37449247#5 37449247#8 37449247#9 37449247#10 37449247#11 37449247#12 94373194#1 94373194#2 122301988#0 122301988#1 880555131#0 880555131#2 154500688#0"/>
    </vehicle>
    <vehicle id="53" depart="106.00">
        <route edges="657572415#3 657572415#4 657572415#5 657572415#6 657572415#7 657572415#8 657572415#9 657572415#10 657572415#11 657572415#12 657572415#13 657572415#14 28107409#0 28107409#1 880575679#0 880575679#1 880575679#2 880575679#3 880575679#4 880575679#5 880575678 319756521#12"/>
    </vehicle>
    <vehicle id="54" depart="108.00">
        <route edges="746095033#3 746095033#4 862447330#0 170590353#3 170590353#4 170590353#5 170590353#7 170590353#8 170590353#9 170590353#10 170590353#11 170590353#12 170590353#13 170590353#14 170590353#16 170590353#17 170590353#18 170590353#19 170594819#1 170594819#2 170594819#3 170594819#4 170594819#5 170594819#6 170594819#8 -862454066 37640545#8 37640545#9 37640545#10 178996141#0 178996141#2 178996141#3 178996141#4 178996141#6 111649306#0 111649306#1"/>
    </vehicle>
    <vehicle id="55" depart="110.00">
        <route edges="757788072 47091937#0 47091937#1 47091937#2 47091937#3 31768459#5 154881334#0 154881335 149415691#0 149415691#3 149415691#4 -23262356#8 -23262356#7 -23262356#6 -23262356#3 -23262356#2 -23262356#1 -873157351#4 -873157351#3 -873157351#2 -873160682#1 -369511961#9 -369511961#5 -369511961#2 -369511961#1 -149868584#8 -149868584#7 -149868584#5 -149868584#3 -149868584#2 -170590355#1 -356857809#5 -356857809#3 -356857809#2 356857810#0 111649306#7"/>
    </vehicle>
    <vehicle id="56" depart="112.00">
        <route edges="170594819#4 170594819#5 -170594819#5 -170594819#4 -170594819#3 -170594819#2 -170594819#1 -170590353#19 -170590353#18 -170590353#17 -170590353#16 -170590353#14 -170590353#13 -170590353#12 -170590353#11 -170590353#10 -170590353#9 -170590353#8 -170590353#7 -170590353#5 -170590353#4 -170590353#3 862447330#1 862447331#0 862447331#1 862447331#2 862447331#3 862447331#4 -487814040#2 -487814040#1 -487814040#0 487814040#0 487814040#1 487814040#2"/>
    </vehicle>
    <vehicle id="57" depart="114.00">
        <route edges="-257025800#5 -257025800#4 -257025800#3 -257025800#2 -257025800#0 -170594817 -22908661#1 -22908661#0 170594828#0 170594828#1 170594828#2 170594828#3 170594828#4 170594828#5 170594828#6 170594828#7 170594828#8 881245048#0 881245048#1 173211619#0 173211619#1 657150061#0 657150061#1 657150061#2 657150061#3 657150061#4 876131439 876131443 170590356#0 170590356#1 170590356#2 170590356#3 170590356#4 170590356#5 37856843#0 80347021#0 80347021#3 80347021#4 37449247#0 37449247#2 37449247#5 37449247#8 37449247#9 37449247#10 37449247#11 37449247#12 122301994#0 122301994#1 122301994#2 122301994#3 122301994#4 122301994#5 37638426#0 37638426#1 -37638470#3 -37638470#2 -37638470#1 -316299341 -233889487"/>
    </vehicle>
    <vehicle id="58" depart="116.00">
        <route edges="881916066#5 28107370#0 319756521#5 28107371#3 639682445#0 356857809#0 356857809#3 356857809#4 881905842#2 881905841 877851357#0 877851357#1 149868584#3 149868584#4 149868584#7 149868584#8 369511961#1 369511961#2 369511961#4 369511961#6 369511961#10 154844487#1 154844481 154844477 101272435#0 101272435#1 101272435#2 757788069#0 757788069#1 757788069#2 757788069#3 37771904#0 83051483"/>
    </vehicle>
    <vehicle id="59" depart="118.00">
        <route edges="173211625#2 -173211625#2 -173211625#1 -173211625#0 23566893#0 23566893#1 756569652#0 756569652#1 480987084#0 480987084#1 480987084#2 151167657#0 151167657#1 862447329#0 862447329#1 862447329#2 862447329#3 862447329#6 862447329#7 151167659#0 151167659#1 151167659#2 240482839 876124552#0 876124552#1 173528288#0 173528288#1 173528288#2 173528288#3 173528288#4 877288371#0 877288371#1 877288371#2 94373194#0 122301994#0 122301994#1 122301994#2 122301994#3 122301994#4"/>
    </vehicle>
    <vehicle id="60" depart="120.00">
        <route edges="47092240#1 757788071#0 757788071#1 757788071#2 757788074#0 757788074#1 757788074#2 876131444 167693273 170590353#0 170590353#2 862447330#1 862447331#0 880555128 657150059 880555129 880555130"/>
    </vehicle>
    <vehicle id="61" depart="122.00">
        <route edges="755147088#5 881905851#0 881905851#1 881905851#2 881905851#3 881905851#4 881905851#5 881905851#6 -379511957#2 -379511957#1 -379511957#0 379511956#0 379511956#1 379511956#2 379511956#4 379511956#5 379511956#6 379511956#7 379511956#8 379511956#9 447701732 755147087 80451876#0 80451876#1 80451876#2 80451876#3 80451876#4 80451876#6 80451876#7"/>
    </vehicle>
    <vehicle id="62" depart="124.00">
        <route edges="81096816#2 876124551#0 160587538#1 154844463#1 154844479#1 154844473 154844487#1 154844481 154844477 101272435#0 101272435#1 101272435#2 757788069#0 757788069#1 757788069#2 757788069#3 37771904#0 37771904#1 37771904#2"/>
    </vehicle>
    <vehicle id="63" depart="126.00">
        <route edges="58770837#1 58770837#2 58770836 58770833#0 154844461#2 154844461#3 154844470#0 154844470#1 154844465#0 154844465#1 81096816#0 24573905#0 24573905#1"/>
    </vehicle>
    <vehicle id="64" depart="128.00">
        <route edges="149422211#6 757788071#0 757788071#1 757788071#2 757788074#0 757788074#1 757788074#2 876131442#0 876131442#1 876131442#2 876131442#3 876120666 876120670#0 876120670#1 876120670#2 572328743 37140690 572328744#0 572328744#1 572328744#2 572328744#3 572328744#4 572328744#5 572328744#6 -8272420#5 -8272420#3"/>
    </vehicle>
    <vehicle id="65" depart="130.00">
        <route edges="480987083#0 480987083#1 480987083#2 572328742#3 572328742#4 572328742#5 572328743 37140690 572328744#0 572328744#1 572328744#2 572328744#3 572328744#4 572328744#5 572328744#6 369511399#0 369511399#1 369511399#2 369511399#3 369511399#4 369511399#5 369511399#7 369511399#9 881245049#0 881245049#1 173271714#0 173271714#1 173271714#1-AddedOffRampEdge 173271714#2 173271714#3 173271714#4 173271714#5 881920740#0 881920740#1 22908661#0 22908661#1 257025801#0 257025801#2 257025802#0 257025802#1 257025802#2 379511956#0 379511956#1 379511956#2 379511956#4 80728666#0 80728666#1 80728666#2 80728666#3 881679704 881679705"/>
    </vehicle>
    <vehicle id="66" depart="132.00">
        <route edges="-356857808#3 -356857808#2 -356857808#0 881916069#0 881916069#1 373249644#0 373249644#2 373249644#3 319756521#2 319756521#3 319756521#4 28107370#1 28107370#2 28107370#3"/>
    </vehicle>
    <vehicle id="67" depart="134.00">
        <route edges="-80339839#2 -80339839#0 80339839#0 80339839#2 80339839#3 80339839#4 351678831#1 351678831#2 351678831#3 351678831#4 351678831#5 351678831#7 351678831#8 351678831#9 876131440 167693277#0 167693277#1 167693277#2 167693277#3 167693277#4 657150065#0 657150065#1 881245049#0 881245049#1 173271714#0 173271714#1 173271714#1-AddedOffRampEdge 173271714#2 173271714#3 173271714#4 173271714#5 881920740#0 881920740#1 22908661#0 22908661#1 257025801#0 257025801#2 257025802#0 257025802#1 257025802#2 379511956#0 379511956#1 379511956#2"/>
    </vehicle>
    <vehicle id="68" depart="136.00">
        <route edges="170590356#5 149415691#0 149415691#3 149415691#4 -23262356#8 -23262356#7 -23262356#6 -23262356#3 -23262356#2 -23262356#1 -873157351#4 -873157351#3 -873157351#2 -873160682#1 -369511961#9 -369511961#5 -369511961#2 -369511961#1 170594819#1 170594819#2 170594819#3 170594819#4"/>
    </vehicle>
    <vehicle id="69" depart="138.00">