<additional xmlns:xsi="http://www.w3.org/2001/XMLSchema-instance" xsi:noNamespaceSchemaLocation="http://sumo.dlr.de/xsd/additional_file.xsd"><route edges="-34962531#1" color="yellow" id="route_peschiera1" /><calibrator id="calibrator_peschiera1" edge="-34962531#1" pos="0.0" freq="0.1"><flow begin="0" end="3600" departPos="free" departSpeed="max" route="routedistcal1" vehsPerHour="756" speed="10" /></calibrator><route edges="37973572#8" color="yellow" id="route_peschiera2" /><calibrator id="calibrator_peschiera2" edge="37973572#8" pos="0.0" freq="0.1"><flow begin="0" end="3600" departPos="free" departSpeed="max" route="routedistcal2" vehsPerHour="1200" speed="10" /></calibrator><route edges="-37973572#2" color="yellow" id="route_peschiera3" /><calibrator id="calibrator_peschiera3" edge="-37973572#2" pos="0.0" freq="0.1"><flow begin="0" end="3600" departPos="free" departSpeed="max" route="routedistcal3" vehsPerHour="840" speed="10" /></calibrator><route edges="-369511961#5" color="yellow" id="route_einaudi1" /><calibrator id="calibrator_einaudi1" edge="-369511961#5" pos="0.0" freq="0.1"><flow begin="0" end="3600" departPos="free" departSpeed="max" route="routedistcal4" vehsPerHour="792" speed="10" /></calibrator><route edges="369511961#6" color="yellow" id="route_einaudi2" /><calibrator id="calibrator_einaudi2" edge="369511961#6" pos="0.0" freq="0.1"><flow begin="0" end="3600" departPos="free" departSpeed="max" route="routedistcal5" vehsPerHour="696" speed="10" /></calibrator><route edges="755147086#7" color="yellow" id="route_sommeiller1" /><calibrator id="calibrator_sommeiller1" edge="755147086#7" pos="0.0" freq="0.1"><flow begin="0" end="3600" departPos="free" departSpeed="max" route="routedistcal6" vehsPerHour="600" speed="10" /></calibrator><route edges="755147088#4" color="yellow" id="route_turati1" /><calibrator id="calibrator_turati1" edge="755147088#4" pos="0.0" freq="0.1"><flow begin="0" end="3600" departPos="free" departSpeed="max" route="routedistcal7" vehsPerHour="108" speed="10" /></calibrator><route edges="-81547761#4" color="yellow" id="route_sommeiller2" /><calibrator id="calibrator_sommeiller2" edge="-81547761#4" pos="0.0" freq="0.1"><flow begin="0" end="3600" departPos="free" departSpeed="max" route="routedistcal8" vehsPerHour="780" speed="10" /></calibrator><route edges="80451876#1" color="yellow" id="route_sacchi" /><calibrator id="calibrator_sacchi" edge="80451876#1" pos="0.0" freq="0.1"><flow begin="0" end="3600" departPos="free" departSpeed="max" route="routedistcal9" vehsPerHour="444" speed="10" /></calibrator><route edges="-379511956#2" color="yellow" id="route_turati2" /><calibrator id="calibrator_turati2" edge="-379511956#2" pos="0.0" freq="0.1"><flow begin="0" end="3600" departPos="free" departSpeed="max" route="routedistcal10" vehsPerHour="264" speed="10" /></calibrator></additional>