<?xml version="1.0" encoding="UTF-8"?>
<!-- generated on 2022-02-16 11:22:18.603146 by randomTrips.py UNKNOWN
  options: -o ./utils/deafult.trips.xml -n ./utils/map.net.xml -r ./utils/cal_routes/map.roucal10.xml -e 100 -l <doubleminus>random <doubleminus>weights-prefix ./utils/cal_sources/calibratorssources10
-->
<routes xmlns:xsi="http://www.w3.org/2001/XMLSchema-instance" xsi:noNamespaceSchemaLocation="http://sumo.dlr.de/xsd/routes_file.xsd">
    <trip id="0" depart="0.00" from="-379511956#2" to="881916063#1"/>
    <trip id="1" depart="1.00" from="-379511956#2" to="-8272429#4"/>
    <trip id="2" depart="2.00" from="-379511956#2" to="755147086#4"/>
    <trip id="3" depart="3.00" from="-379511956#2" to="319758090#3"/>
    <trip id="4" depart="4.00" from="-379511956#2" to="881245053#0"/>
    <trip id="5" depart="5.00" from="-379511956#2" to="558288366#3"/>
    <trip id="6" depart="6.00" from="-379511956#2" to="43018568#2"/>
    <trip id="7" depart="7.00" from="-379511956#2" to="356857809#0"/>
    <trip id="8" depart="8.00" from="-379511956#2" to="106367427"/>
    <trip id="9" depart="9.00" from="-379511956#2" to="-81547761#4"/>
    <trip id="10" depart="10.00" from="-379511956#2" to="149422199#0"/>
    <trip id="11" depart="11.00" from="-379511956#2" to="659342834#0"/>
    <trip id="12" depart="12.00" from="-379511956#2" to="379511956#7"/>
    <trip id="13" depart="13.00" from="-379511956#2" to="37449247#10"/>
    <trip id="14" depart="14.00" from="-379511956#2" to="-160587538#3"/>
    <trip id="15" depart="15.00" from="-379511956#2" to="23566902"/>
    <trip id="16" depart="16.00" from="-379511956#2" to="746095033#4"/>
    <trip id="17" depart="17.00" from="-379511956#2" to="756569655#1"/>
    <trip id="18" depart="18.00" from="-379511956#2" to="37140611#1"/>
    <trip id="19" depart="19.00" from="-379511956#2" to="-149422210#0"/>
    <trip id="20" depart="20.00" from="-379511956#2" to="-37973572#2"/>
    <trip id="21" depart="21.00" from="-379511956#2" to="37449247#5"/>
    <trip id="22" depart="22.00" from="-379511956#2" to="24319558"/>
    <trip id="23" depart="23.00" from="-379511956#2" to="23313555#0"/>
    <trip id="24" depart="24.00" from="-379511956#2" to="28107362#6"/>
    <trip id="25" depart="25.00" from="-379511956#2" to="-130443630#4"/>
    <trip id="26" depart="26.00" from="-379511956#2" to="-8272429#0"/>
    <trip id="27" depart="27.00" from="-379511956#2" to="-130443630#4"/>
    <trip id="28" depart="28.00" from="-379511956#2" to="81096816#5"/>
    <trip id="29" depart="29.00" from="-379511956#2" to="47091937#0"/>
    <trip id="30" depart="30.00" from="-379511956#2" to="659342834#0"/>
    <trip id="31" depart="31.00" from="-379511956#2" to="327999345"/>
    <trip id="32" depart="32.00" from="-379511956#2" to="757788071#1"/>
    <trip id="33" depart="33.00" from="-379511956#2" to="659342832#13"/>
    <trip id="34" depart="34.00" from="-379511956#2" to="170594828#6"/>
    <trip id="35" depart="35.00" from="-379511956#2" to="-356857809#2"/>
    <trip id="36" depart="36.00" from="-379511956#2" to="499694885#4"/>
    <trip id="37" depart="37.00" from="-379511956#2" to="-356857809#2"/>
    <trip id="38" depart="38.00" from="-379511956#2" to="-256806942#0"/>
    <trip id="39" depart="39.00" from="-379511956#2" to="657572415#5"/>
    <trip id="40" depart="40.00" from="-379511956#2" to="873157351#4"/>
    <trip id="41" depart="41.00" from="-379511956#2" to="149422211#5"/>
    <trip id="42" depart="42.00" from="-379511956#2" to="173211625#3"/>
    <trip id="43" depart="43.00" from="-379511956#2" to="39773187#1"/>
    <trip id="44" depart="44.00" from="-379511956#2" to="-356857808#7"/>
    <trip id="45" depart="45.00" from="-379511956#2" to="47091937#0"/>
    <trip id="46" depart="46.00" from="-379511956#2" to="487814038#2"/>
    <trip id="47" depart="47.00" from="-379511956#2" to="37278470#1"/>
    <trip id="48" depart="48.00" from="-379511956#2" to="179917801"/>
    <trip id="49" depart="49.00" from="-379511956#2" to="37973572#8"/>
    <trip id="50" depart="50.00" from="-379511956#2" to="757059572#2"/>
    <trip id="51" depart="51.00" from="-379511956#2" to="37638470#2"/>
    <trip id="52" depart="52.00" from="-379511956#2" to="149422211#4"/>
    <trip id="53" depart="53.00" from="-379511956#2" to="111649306#11"/>
    <trip id="54" depart="54.00" from="-379511956#2" to="757788075#6"/>
    <trip id="55" depart="55.00" from="-379511956#2" to="37640545#2"/>
    <trip id="56" depart="56.00" from="-379511956#2" to="23566902"/>
    <trip id="57" depart="57.00" from="-379511956#2" to="141433889"/>
    <trip id="58" depart="58.00" from="-379511956#2" to="-170594819#8"/>
    <trip id="59" depart="59.00" from="-379511956#2" to="149190790#0"/>
    <trip id="60" depart="60.00" from="-379511956#2" to="447699318#3"/>
    <trip id="61" depart="61.00" from="-379511956#2" to="659342834#0"/>
    <trip id="62" depart="62.00" from="-379511956#2" to="447699317#6"/>
    <trip id="63" depart="63.00" from="-379511956#2" to="37449247#2"/>
    <trip id="64" depart="64.00" from="-379511956#2" to="862447333#1"/>
    <trip id="65" depart="65.00" from="-379511956#2" to="-173211625#2"/>
    <trip id="66" depart="66.00" from="-379511956#2" to="222769029#1"/>
    <trip id="67" depart="67.00" from="-379511956#2" to="149864358#2"/>
    <trip id="68" depart="68.00" from="-379511956#2" to="130443630#9"/>
    <trip id="69" depart="69.00" from="-379511956#2" to="316299341"/>
    <trip id="70" depart="70.00" from="-379511956#2" to="149422211#1"/>
    <trip id="71" depart="71.00" from="-379511956#2" to="8272412#2"/>
    <trip id="72" depart="72.00" from="-379511956#2" to="873278976#3"/>
    <trip id="73" depart="73.00" from="-379511956#2" to="757788069#2"/>
    <trip id="74" depart="74.00" from="-379511956#2" to="81096877#0"/>
    <trip id="75" depart="75.00" from="-379511956#2" to="170590353#5"/>
    <trip id="76" depart="76.00" from="-379511956#2" to="881916067#2"/>
    <trip id="77" depart="77.00" from="-379511956#2" to="149422210#0"/>
    <trip id="78" depart="78.00" from="-379511956#2" to="149415693#0"/>
    <trip id="79" depart="79.00" from="-379511956#2" to="-379511956#11"/>
    <trip id="80" depart="80.00" from="-379511956#2" to="37640549#0"/>
    <trip id="81" depart="81.00" from="-379511956#2" to="43018568#3"/>
    <trip id="82" depart="82.00" from="-379511956#2" to="160587533#1"/>
    <trip id="83" depart="83.00" from="-379511956#2" to="-756569653#4"/>
    <trip id="84" depart="84.00" from="-379511956#2" to="-149868584#8"/>
    <trip id="85" depart="85.00" from="-379511956#2" to="447699317#5"/>
    <trip id="86" depart="86.00" from="-379511956#2" to="160587545#2"/>
    <trip id="87" depart="87.00" from="-379511956#2" to="179917803#0"/>
    <trip id="88" depart="88.00" from="-379511956#2" to="558288368#0"/>
    <trip id="89" depart="89.00" from="-379511956#2" to="37973568#4"/>
    <trip id="90" depart="90.00" from="-379511956#2" to="28107377#1"/>
    <trip id="91" depart="91.00" from="-379511956#2" to="757788069#0"/>
    <trip id="92" depart="92.00" from="-379511956#2" to="179917801"/>
    <trip id="93" depart="93.00" from="-379511956#2" to="-130443630#4"/>
    <trip id="94" depart="94.00" from="-379511956#2" to="-149819232#0"/>
    <trip id="95" depart="95.00" from="-379511956#2" to="81096816#5"/>
    <trip id="96" depart="96.00" from="-379511956#2" to="151167656#2"/>
    <trip id="97" depart="97.00" from="-379511956#2" to="-23262356#1"/>
    <trip id="98" depart="98.00" from="-379511956#2" to="-756569653#4"/>
    <trip id="99" depart="99.00" from="-379511956#2" to="170590353#11"/>
</routes>
