<?xml version="1.0" encoding="UTF-8"?>

<!-- generated on 2022-02-02 09:44:03 by Eclipse SUMO netedit Version 1.11.0
<configuration xmlns:xsi="http://www.w3.org/2001/XMLSchema-instance" xsi:noNamespaceSchemaLocation="http://sumo.dlr.de/xsd/netconvertConfiguration.xsd">

    <input>
        <sumo-net-file value="/Users/davidezordan/Desktop/SimuTorino/mapcrocetta/map.net.xml"/>
    </input>

    <output>
        <output-file value="/Users/davidezordan/Desktop/SimuTorino/mapcrocetta/map.net.xml"/>
    </output>

    <processing>
        <geometry.min-radius.fix.railways value="false"/>
        <geometry.max-grade.fix value="false"/>
        <offset.disable-normalization value="true"/>
        <lefthand value="false"/>
    </processing>

    <junctions>
        <no-turnarounds value="true"/>
        <junctions.corner-detail value="5"/>
        <junctions.limit-turn-speed value="5.5"/>
        <rectangular-lane-cut value="false"/>
    </junctions>

    <pedestrian>
        <walkingareas value="false"/>
    </pedestrian>

    <report>
        <aggregate-warnings value="5"/>
    </report>

</configuration>
-->

<net version="1.9" junctionCornerDetail="5" limitTurnSpeed="5.50" xmlns:xsi="http://www.w3.org/2001/XMLSchema-instance" xsi:noNamespaceSchemaLocation="http://sumo.dlr.de/xsd/net_file.xsd">

    <location netOffset="-393658.15,-4988696.48" convBoundary="0.00,0.00,2116.82,2985.67" origBoundary="7.605814,45.029474,7.754343,45.113927" projParameter="+proj=utm +zone=32 +ellps=WGS84 +datum=WGS84 +units=m +no_defs"/>

    <type id="highway.bridleway" priority="1" numLanes="1" speed="2.78" allow="pedestrian" oneway="1" width="2.00"/>
    <type id="highway.bus_guideway" priority="1" numLanes="1" speed="27.78" allow="bus" oneway="1"/>
    <type id="highway.cycleway" priority="1" numLanes="1" speed="8.33" allow="bicycle" oneway="1" width="1.00"/>
    <type id="highway.footway" priority="1" numLanes="1" speed="2.78" allow="pedestrian" oneway="1" width="2.00"/>
    <type id="highway.ford" priority="1" numLanes="1" speed="2.78" allow="army" oneway="1"/>
    <type id="highway.living_street" priority="2" numLanes="1" speed="2.78" disallow="tram rail_urban rail rail_electric rail_fast ship" oneway="1"/>
    <type id="highway.motorway" priority="14" numLanes="2" speed="39.44" allow="private emergency authority army vip passenger hov taxi bus coach delivery truck trailer motorcycle evehicle custom1 custom2" oneway="1"/>
    <type id="highway.motorway_link" priority="9" numLanes="1" speed="22.22" allow="private emergency authority army vip passenger hov taxi bus coach delivery truck trailer motorcycle evehicle custom1 custom2" oneway="1"/>
    <type id="highway.path" priority="1" numLanes="1" speed="2.78" allow="pedestrian bicycle" oneway="1" width="2.00"/>
    <type id="highway.pedestrian" priority="1" numLanes="1" speed="2.78" allow="pedestrian" oneway="1" width="2.00"/>
    <type id="highway.primary" priority="12" numLanes="2" speed="27.78" disallow="tram rail_urban rail rail_electric rail_fast ship" oneway="1"/>
    <type id="highway.primary_link" priority="7" numLanes="1" speed="22.22" disallow="tram rail_urban rail rail_electric rail_fast ship" oneway="1"/>
    <type id="highway.raceway" priority="15" numLanes="2" speed="83.33" allow="vip" oneway="1"/>
    <type id="highway.residential" priority="3" numLanes="1" speed="13.89" disallow="tram rail_urban rail rail_electric rail_fast ship" oneway="1"/>
    <type id="highway.secondary" priority="11" numLanes="1" speed="27.78" disallow="tram rail_urban rail rail_electric rail_fast ship" oneway="1"/>
    <type id="highway.secondary_link" priority="6" numLanes="1" speed="22.22" disallow="tram rail_urban rail rail_electric rail_fast ship" oneway="1"/>
    <type id="highway.secondary_link|railway.tram" priority="17" numLanes="1" speed="22.22" disallow="rail_urban rail rail_electric rail_fast ship" oneway="1"/>
    <type id="highway.secondary|railway.tram" priority="17" numLanes="1" speed="27.78" disallow="rail_urban rail rail_electric rail_fast ship" oneway="1"/>
    <type id="highway.service" priority="1" numLanes="1" speed="5.56" allow="pedestrian delivery bicycle" oneway="1"/>
    <type id="highway.service|railway.tram" priority="17" numLanes="1" speed="13.89" allow="pedestrian delivery bicycle tram" oneway="1"/>
    <type id="highway.stairs" priority="1" numLanes="1" speed="1.39" allow="pedestrian" oneway="1" width="2.00"/>
    <type id="highway.step" priority="1" numLanes="1" speed="1.39" allow="pedestrian" oneway="1" width="2.00"/>
    <type id="highway.steps" priority="1" numLanes="1" speed="1.39" allow="pedestrian" oneway="1" width="2.00"/>
    <type id="highway.tertiary" priority="10" numLanes="1" speed="22.22" disallow="tram rail_urban rail rail_electric rail_fast ship" oneway="1"/>
    <type id="highway.tertiary_link" priority="5" numLanes="1" speed="22.22" disallow="tram rail_urban rail rail_electric rail_fast ship" oneway="1"/>
    <type id="highway.track" priority="1" numLanes="1" speed="5.56" allow="pedestrian motorcycle moped bicycle" oneway="1"/>
    <type id="highway.trunk" priority="13" numLanes="2" speed="27.78" disallow="pedestrian bicycle tram rail_urban rail rail_electric rail_fast ship" oneway="1"/>
    <type id="highway.trunk_link" priority="8" numLanes="1" speed="22.22" disallow="pedestrian bicycle tram rail_urban rail rail_electric rail_fast ship" oneway="1"/>
    <type id="highway.unclassified" priority="4" numLanes="1" speed="13.89" disallow="tram rail_urban rail rail_electric rail_fast ship" oneway="1"/>
    <type id="highway.unsurfaced" priority="1" numLanes="1" speed="8.33" disallow="tram rail_urban rail rail_electric rail_fast ship" oneway="1"/>
    <type id="railway.highspeed" priority="21" numLanes="1" speed="69.44" allow="rail_fast" oneway="1"/>
    <type id="railway.light_rail" priority="19" numLanes="1" speed="27.78" allow="rail_urban" oneway="1"/>
    <type id="railway.preserved" priority="16" numLanes="1" speed="27.78" allow="rail" oneway="1"/>
    <type id="railway.rail" priority="20" numLanes="1" speed="44.44" allow="rail" oneway="1"/>
    <type id="railway.subway" priority="18" numLanes="1" speed="27.78" allow="rail_urban" oneway="1"/>
    <type id="railway.tram" priority="17" numLanes="1" speed="13.89" allow="tram" oneway="1"/>

    <edge id=":1096401706_0" function="internal">
        <lane id=":1096401706_0_0" index="0" disallow="pedestrian tram rail_urban rail rail_electric rail_fast ship" speed="13.89" length="21.61" shape="447.68,1559.55 446.63,1555.79 444.65,1551.63 441.86,1546.64 438.38,1540.38"/>
        <lane id=":1096401706_0_1" index="1" disallow="pedestrian tram rail_urban rail rail_electric rail_fast ship" speed="13.89" length="21.61" shape="447.68,1559.55 447.08,1555.58 446.09,1550.93 444.27,1545.43 441.19,1538.86"/>
    </edge>
    <edge id=":1096401706_2" function="internal">
        <lane id=":1096401706_2_0" index="0" disallow="pedestrian tram rail_urban rail rail_electric rail_fast ship" speed="13.89" length="17.83" shape="452.51,1554.08 447.59,1550.74 444.19,1548.33 441.43,1545.37 438.38,1540.38"/>
        <lane id=":1096401706_2_1" index="1" disallow="pedestrian tram rail_urban rail rail_electric rail_fast ship" speed="13.89" length="17.83" shape="454.38,1551.48 449.80,1548.39 446.63,1546.19 444.04,1543.48 441.19,1538.86"/>
        <lane id=":1096401706_2_2" index="2" disallow="pedestrian tram rail_urban rail rail_electric rail_fast ship" speed="13.89" length="17.83" shape="456.24,1548.88 452.01,1546.05 449.06,1544.05 446.64,1541.58 444.01,1537.35"/>
        <lane id=":1096401706_2_3" index="3" disallow="pedestrian tram rail_urban rail rail_electric rail_fast ship" speed="13.89" length="17.83" shape="458.11,1546.28 454.22,1543.71 451.49,1541.91 449.25,1539.69 446.83,1535.83"/>
    </edge>
    <edge id=":1096401707_0" function="internal">
        <lane id=":1096401707_0_0" index="0" disallow="pedestrian tram rail_urban rail rail_electric rail_fast ship" speed="9.50" length="9.83" shape="564.86,1708.99 566.16,1710.88 567.90,1712.40 570.10,1713.54 572.74,1714.31"/>
    </edge>
    <edge id=":1096401707_1" function="internal">
        <lane id=":1096401707_1_0" index="0" disallow="pedestrian tram rail_urban rail rail_electric rail_fast ship" speed="13.89" length="11.25" shape="564.86,1708.99 570.02,1719.00"/>
        <lane id=":1096401707_1_1" index="1" disallow="pedestrian tram rail_urban rail rail_electric rail_fast ship" speed="13.89" length="11.25" shape="562.02,1710.46 567.18,1720.47"/>
        <lane id=":1096401707_1_2" index="2" disallow="pedestrian tram rail_urban rail rail_electric rail_fast ship" speed="13.89" length="11.25" shape="559.18,1711.94 564.33,1721.93"/>
    </edge>
    <edge id=":1096401707_4" function="internal">
        <lane id=":1096401707_4_0" index="0" disallow="tram rail_urban rail rail_electric rail_fast ship" speed="12.66" length="16.48" shape="557.08,1717.55 560.59,1715.45 564.37,1714.21 568.42,1713.83 572.74,1714.31"/>
    </edge>
    <edge id=":1096401707_5" function="internal">
        <lane id=":1096401707_5_0" index="0" disallow="pedestrian tram rail_urban rail rail_electric rail_fast ship" speed="7.14" length="12.49" shape="557.08,1717.55 560.04,1715.99 562.71,1715.96 565.09,1717.45 567.18,1720.47"/>
        <lane id=":1096401707_5_1" index="1" disallow="pedestrian tram rail_urban rail rail_electric rail_fast ship" speed="6.38" length="9.76" shape="557.08,1717.55 558.89,1716.81 560.70,1717.29 562.51,1719.00 564.33,1721.93"/>
    </edge>
    <edge id=":1096401708_0" function="internal">
        <lane id=":1096401708_0_0" index="0" disallow="tram rail_urban rail rail_electric rail_fast ship" speed="9.72" length="12.57" shape="479.71,1518.91 481.25,1522.51 482.20,1525.30 483.37,1527.62 485.59,1529.79"/>
    </edge>
    <edge id=":1096401708_1" function="internal">
        <lane id=":1096401708_1_0" index="0" disallow="tram rail_urban rail rail_electric rail_fast ship" speed="13.89" length="13.57" shape="479.71,1518.91 481.42,1522.50 482.17,1525.18 482.23,1527.98 481.83,1531.97"/>
        <lane id=":1096401708_1_1" index="1" disallow="tram rail_urban rail rail_electric rail_fast ship" speed="13.89" length="11.68" shape="476.86,1520.37 478.33,1523.47 478.96,1525.77 479.00,1528.18 478.65,1531.62"/>
        <lane id=":1096401708_1_2" index="2" disallow="tram rail_urban rail rail_electric rail_fast ship" speed="13.09" length="9.79" shape="474.02,1521.83 475.24,1524.43 475.75,1526.36 475.77,1528.39 475.46,1531.27"/>
    </edge>
    <edge id=":1096401733_0" function="internal">
        <lane id=":1096401733_0_0" index="0" disallow="tram rail_urban rail rail_electric rail_fast ship" speed="6.82" length="7.29" shape="591.14,1723.98 592.55,1725.12 594.14,1725.69 595.91,1725.70 597.85,1725.14"/>
    </edge>
    <edge id=":1096401733_1" function="internal">
        <lane id=":1096401733_1_0" index="0" disallow="tram rail_urban rail rail_electric rail_fast ship" speed="13.89" length="8.23" shape="591.14,1723.98 592.77,1725.79 593.77,1727.13 594.55,1728.62 595.53,1730.86"/>
    </edge>
    <edge id=":1096401746_0" function="internal">
        <lane id=":1096401746_0_0" index="0" disallow="tram rail_urban rail rail_electric rail_fast ship" speed="9.72" length="7.14" shape="598.09,1743.09 598.20,1745.15 598.68,1746.50 599.51,1747.77 600.67,1749.56"/>
    </edge>
    <edge id=":1096401746_1" function="internal">
        <lane id=":1096401746_1_0" index="0" disallow="tram rail_urban rail rail_electric rail_fast ship" speed="13.89" length="7.18" shape="598.09,1743.09 597.95,1745.21 597.67,1746.63 597.22,1748.04 596.58,1750.07"/>
    </edge>
    <edge id=":1109339554_0" function="internal">
        <lane id=":1109339554_0_0" index="0" disallow="tram rail_urban rail rail_electric rail_fast ship" speed="6.45" length="9.40" shape="452.93,1397.56 451.22,1399.10 450.57,1400.96 450.96,1403.15 452.40,1405.67"/>
    </edge>
    <edge id=":1109339554_1" function="internal">
        <lane id=":1109339554_1_0" index="0" disallow="tram rail_urban rail rail_electric rail_fast ship" speed="10.52" length="11.73" shape="452.93,1397.56 450.00,1399.63 447.82,1401.78 446.36,1404.01 445.64,1406.31"/>
    </edge>
    <edge id=":1109339554_2" function="internal">
        <lane id=":1109339554_2_0" index="0" disallow="tram rail_urban rail rail_electric rail_fast ship" speed="9.72" length="12.36" shape="445.85,1395.21 447.42,1398.15 448.88,1400.60 450.45,1402.96 452.40,1405.67"/>
    </edge>
    <edge id=":1109339554_3" function="internal">
        <lane id=":1109339554_3_0" index="0" disallow="tram rail_urban rail rail_electric rail_fast ship" speed="13.36" length="5.42" shape="445.85,1395.21 446.89,1398.13 446.88,1400.45"/>
    </edge>
    <edge id=":1109339554_4" function="internal">
        <lane id=":1109339554_4_0" index="0" disallow="tram rail_urban rail rail_electric rail_fast ship" speed="13.36" length="5.99" shape="446.88,1400.45 446.88,1400.58 446.31,1403.12 445.64,1406.31"/>
    </edge>
    <edge id=":1109339598_0" function="internal">
        <lane id=":1109339598_0_0" index="0" disallow="tram rail_urban rail rail_electric rail_fast ship" speed="13.89" length="19.39" shape="444.51,1414.48 443.83,1418.26 443.07,1422.42 442.78,1427.41 443.55,1433.69"/>
    </edge>
    <edge id=":1109339598_1" function="internal">
        <lane id=":1109339598_1_0" index="0" disallow="tram rail_urban rail rail_electric rail_fast ship" speed="13.89" length="19.44" shape="440.14,1414.62 443.55,1433.69"/>
        <lane id=":1109339598_1_1" index="1" disallow="tram rail_urban rail rail_electric rail_fast ship" speed="13.89" length="19.44" shape="436.99,1415.20 440.42,1434.34"/>
        <lane id=":1109339598_1_2" index="2" disallow="tram rail_urban rail rail_electric rail_fast ship" speed="13.89" length="19.44" shape="433.85,1415.78 437.28,1435.00"/>
    </edge>
    <edge id=":1128579515_0" function="internal">
        <lane id=":1128579515_0_0" index="0" disallow="tram rail_urban rail rail_electric rail_fast ship" speed="5.63" length="9.29" shape="1235.61,683.67 1236.87,681.16 1236.78,679.33 1235.35,678.19 1232.57,677.74"/>
    </edge>
    <edge id=":1128579515_1" function="internal">
        <lane id=":1128579515_1_0" index="0" disallow="tram rail_urban rail rail_electric rail_fast ship" speed="12.73" length="11.17" shape="1235.61,683.67 1237.40,681.03 1238.96,679.13 1240.89,677.71 1243.77,676.49"/>
    </edge>
    <edge id=":1128614594_0" function="internal">
        <lane id=":1128614594_0_0" index="0" disallow="tram rail_urban rail rail_electric rail_fast ship" speed="7.90" length="7.61" shape="1700.41,1219.31 1699.28,1218.30 1697.73,1217.63 1695.75,1217.31 1693.36,1217.33"/>
    </edge>
    <edge id=":1128614594_1" function="internal">
        <lane id=":1128614594_1_0" index="0" disallow="tram rail_urban rail rail_electric rail_fast ship" speed="13.89" length="8.23" shape="1700.41,1219.31 1695.25,1212.90"/>
    </edge>
    <edge id=":1128614628_0" function="internal">
        <lane id=":1128614628_0_0" index="0" disallow="tram rail_urban rail rail_electric rail_fast ship" speed="6.38" length="8.64" shape="1543.89,1028.74 1542.14,1027.00 1540.31,1026.20 1538.41,1026.35 1536.43,1027.45"/>
    </edge>
    <edge id=":1128614628_1" function="internal">
        <lane id=":1128614628_1_0" index="0" disallow="tram rail_urban rail rail_electric rail_fast ship" speed="13.89" length="11.26" shape="1543.89,1028.74 1536.95,1019.87"/>
    </edge>
    <edge id=":1128614628_2" function="internal">
        <lane id=":1128614628_2_0" index="0" disallow="tram rail_urban rail rail_electric rail_fast ship" speed="13.89" length="10.40" shape="1544.49,1020.88 1536.43,1027.45"/>
    </edge>
    <edge id=":1128614628_3" function="internal">
        <lane id=":1128614628_3_0" index="0" disallow="tram rail_urban rail rail_electric rail_fast ship" speed="6.34" length="3.96" shape="1544.49,1020.88 1542.51,1022.10 1540.89,1022.31"/>
    </edge>
    <edge id=":1128614628_4" function="internal">
        <lane id=":1128614628_4_0" index="0" disallow="tram rail_urban rail rail_electric rail_fast ship" speed="6.34" length="4.78" shape="1540.89,1022.31 1540.59,1022.34 1538.74,1021.60 1536.95,1019.87"/>
    </edge>
    <edge id=":1128614647_0" function="internal">
        <lane id=":1128614647_0_0" index="0" disallow="tram rail_urban rail rail_electric rail_fast ship" speed="6.61" length="9.14" shape="1520.81,943.19 1519.11,945.06 1518.39,947.02 1518.65,949.07 1519.88,951.21"/>
    </edge>
    <edge id=":1128614647_1" function="internal">
        <lane id=":1128614647_1_0" index="0" disallow="tram rail_urban rail rail_electric rail_fast ship" speed="3.65" length="2.56" shape="1520.81,943.19 1519.37,943.35 1518.55,942.99 1518.50,942.78"/>
    </edge>
    <edge id=":1128614647_4" function="internal">
        <lane id=":1128614647_4_0" index="0" disallow="tram rail_urban rail rail_electric rail_fast ship" speed="3.65" length="2.11" shape="1518.50,942.78 1518.35,942.12 1518.75,940.74"/>
    </edge>
    <edge id=":1128614647_2" function="internal">
        <lane id=":1128614647_2_0" index="0" disallow="tram rail_urban rail rail_electric rail_fast ship" speed="6.48" length="9.03" shape="1510.89,939.99 1512.72,941.67 1514.63,942.36 1516.64,942.05 1518.75,940.74"/>
    </edge>
    <edge id=":1128614647_3" function="internal">
        <lane id=":1128614647_3_0" index="0" disallow="tram rail_urban rail rail_electric rail_fast ship" speed="13.89" length="14.38" shape="1510.89,939.99 1519.88,951.21"/>
    </edge>
    <edge id=":1128614657_0" function="internal">
        <lane id=":1128614657_0_0" index="0" disallow="tram rail_urban rail rail_electric rail_fast ship" speed="6.92" length="10.34" shape="1672.81,1136.76 1675.09,1138.95 1677.34,1140.00 1679.55,1139.91 1681.71,1138.69"/>
    </edge>
    <edge id=":1128614657_1" function="internal">
        <lane id=":1128614657_1_0" index="0" disallow="tram rail_urban rail rail_electric rail_fast ship" speed="18.05" length="14.42" shape="1672.81,1136.76 1681.95,1147.91"/>
    </edge>
    <edge id=":1128614657_2" function="internal">
        <lane id=":1128614657_2_0" index="0" disallow="tram rail_urban rail rail_electric rail_fast ship" speed="7.35" length="11.77" shape="1672.81,1136.76 1675.00,1139.94 1675.96,1142.73 1675.66,1145.13 1674.12,1147.15"/>
    </edge>
    <edge id=":1128614657_3" function="internal">
        <lane id=":1128614657_3_0" index="0" disallow="tram rail_urban rail rail_electric rail_fast ship" speed="18.05" length="11.41" shape="1672.05,1144.71 1674.64,1142.86 1676.88,1141.69 1679.12,1140.53 1681.71,1138.69"/>
    </edge>
    <edge id=":1128614657_4" function="internal">
        <lane id=":1128614657_4_0" index="0" disallow="tram rail_urban rail rail_electric rail_fast ship" speed="7.27" length="11.76" shape="1672.05,1144.71 1674.31,1143.53 1676.71,1143.67 1679.26,1145.13 1681.95,1147.91"/>
    </edge>
    <edge id=":1128614690_0" function="internal">
        <lane id=":1128614690_0_0" index="0" disallow="tram rail_urban rail rail_electric rail_fast ship" speed="6.43" length="9.03" shape="1568.33,1003.50 1566.63,1005.32 1565.94,1007.23 1566.27,1009.23 1567.61,1011.33"/>
    </edge>
    <edge id=":1128614690_1" function="internal">
        <lane id=":1128614690_1_0" index="0" disallow="tram rail_urban rail rail_electric rail_fast ship" speed="13.89" length="11.31" shape="1568.33,1003.50 1559.50,1010.55"/>
    </edge>
    <edge id=":1128614690_2" function="internal">
        <lane id=":1128614690_2_0" index="0" disallow="tram rail_urban rail rail_electric rail_fast ship" speed="3.65" length="2.34" shape="1568.33,1003.50 1566.90,1003.63 1566.08,1003.25"/>
    </edge>
    <edge id=":1128614690_9" function="internal">
        <lane id=":1128614690_9_0" index="0" disallow="tram rail_urban rail rail_electric rail_fast ship" speed="3.65" length="2.34" shape="1566.08,1003.25 1565.89,1002.38 1566.33,1001.01"/>
    </edge>
    <edge id=":1128614690_3" function="internal">
        <lane id=":1128614690_3_0" index="0" disallow="tram rail_urban rail rail_electric rail_fast ship" speed="6.51" length="9.10" shape="1558.41,1000.15 1560.21,1001.86 1562.13,1002.58 1564.17,1002.29 1566.33,1001.01"/>
    </edge>
    <edge id=":1128614690_4" function="internal">
        <lane id=":1128614690_4_0" index="0" disallow="tram rail_urban rail rail_electric rail_fast ship" speed="13.89" length="14.47" shape="1558.41,1000.15 1567.61,1011.33"/>
    </edge>
    <edge id=":1128614690_5" function="internal">
        <lane id=":1128614690_5_0" index="0" disallow="tram rail_urban rail rail_electric rail_fast ship" speed="7.34" length="11.74" shape="1558.41,1000.15 1560.52,1003.40 1561.41,1006.22 1561.06,1008.60 1559.50,1010.55"/>
    </edge>
    <edge id=":1128614690_6" function="internal">
        <lane id=":1128614690_6_0" index="0" disallow="tram rail_urban rail rail_electric rail_fast ship" speed="13.89" length="11.29" shape="1557.50,1008.05 1566.33,1001.01"/>
    </edge>
    <edge id=":1128614690_7" function="internal">
        <lane id=":1128614690_7_0" index="0" disallow="tram rail_urban rail rail_electric rail_fast ship" speed="7.47" length="4.03" shape="1557.50,1008.05 1559.76,1006.97 1561.28,1007.08"/>
    </edge>
    <edge id=":1128614690_8" function="internal">
        <lane id=":1128614690_8_0" index="0" disallow="tram rail_urban rail rail_electric rail_fast ship" speed="3.65" length="2.34" shape="1557.50,1008.05 1558.94,1007.93 1559.75,1008.31"/>
    </edge>
    <edge id=":1128614690_10" function="internal">
        <lane id=":1128614690_10_0" index="0" disallow="tram rail_urban rail rail_electric rail_fast ship" speed="7.47" length="7.82" shape="1561.28,1007.08 1562.19,1007.15 1564.81,1008.61 1567.61,1011.33"/>
    </edge>
    <edge id=":1128614690_11" function="internal">
        <lane id=":1128614690_11_0" index="0" disallow="tram rail_urban rail rail_electric rail_fast ship" speed="3.65" length="2.34" shape="1559.75,1008.31 1559.94,1009.18 1559.50,1010.55"/>
    </edge>
    <edge id=":1128614702_0" function="internal">
        <lane id=":1128614702_0_0" index="0" disallow="tram rail_urban rail rail_electric rail_fast ship" speed="13.89" length="11.21" shape="1607.65,1106.29 1600.52,1097.63"/>
    </edge>
    <edge id=":1128614702_1" function="internal">
        <lane id=":1128614702_1_0" index="0" disallow="tram rail_urban rail rail_electric rail_fast ship" speed="6.37" length="9.04" shape="1599.54,1105.38 1601.33,1103.64 1602.09,1101.77 1601.82,1099.77 1600.52,1097.63"/>
    </edge>
    <edge id=":1155328767_0" function="internal">
        <lane id=":1155328767_0_0" index="0" disallow="tram rail_urban rail rail_electric rail_fast ship" speed="13.89" length="12.82" shape="1581.21,1226.30 1568.46,1227.59"/>
    </edge>
    <edge id=":1155328767_1" function="internal">
        <lane id=":1155328767_1_0" index="0" disallow="tram rail_urban rail rail_electric rail_fast ship" speed="13.89" length="12.82" shape="1571.68,1221.28 1577.81,1232.53"/>
    </edge>
    <edge id=":1155328767_2" function="internal">
        <lane id=":1155328767_2_0" index="0" disallow="tram rail_urban rail rail_electric rail_fast ship" speed="5.82" length="4.57" shape="1571.68,1221.28 1572.66,1223.77 1572.45,1225.65"/>
    </edge>
    <edge id=":1155328767_3" function="internal">
        <lane id=":1155328767_3_0" index="0" disallow="tram rail_urban rail rail_electric rail_fast ship" speed="5.82" length="4.57" shape="1572.45,1225.65 1571.05,1226.92 1568.46,1227.59"/>
    </edge>
    <edge id=":1155328776_0" function="internal">
        <lane id=":1155328776_0_0" index="0" disallow="tram rail_urban rail rail_electric rail_fast ship" speed="13.89" length="11.23" shape="1529.89,1159.09 1538.63,1152.04"/>
    </edge>
    <edge id=":1155328776_1" function="internal">
        <lane id=":1155328776_1_0" index="0" disallow="tram rail_urban rail rail_electric rail_fast ship" speed="6.19" length="9.05" shape="1529.89,1159.09 1532.08,1157.80 1534.05,1157.62 1535.82,1158.53 1537.37,1160.54"/>
    </edge>
    <edge id=":1167320853_0" function="internal">
        <lane id=":1167320853_0_0" index="0" disallow="tram rail_urban rail rail_electric rail_fast ship" speed="13.89" length="0.66" shape="1766.95,1915.96 1767.53,1915.64"/>
    </edge>
    <edge id=":1167320940_0" function="internal">
        <lane id=":1167320940_0_0" index="0" disallow="tram rail_urban rail rail_electric rail_fast ship" speed="13.89" length="0.78" shape="1616.57,1628.56 1615.90,1628.96"/>
    </edge>
    <edge id=":1168929272_0" function="internal">
        <lane id=":1168929272_0_0" index="0" disallow="pedestrian tram rail_urban rail rail_electric rail_fast ship" speed="9.51" length="9.05" shape="901.98,1802.66 901.55,1801.13 900.25,1798.62 898.79,1796.12 897.91,1794.63"/>
    </edge>
    <edge id=":1168929272_1" function="internal">
        <lane id=":1168929272_1_0" index="0" disallow="pedestrian rail_urban rail rail_electric rail_fast ship" speed="22.22" length="7.74" shape="901.98,1802.66 903.93,1795.17"/>
    </edge>
    <edge id=":1168929298_0" function="internal">
        <lane id=":1168929298_0_0" index="0" disallow="tram rail_urban rail rail_electric rail_fast ship" speed="9.72" length="7.15" shape="582.02,1712.79 582.86,1714.76 583.35,1716.21 584.09,1717.44 585.67,1718.74"/>
    </edge>
    <edge id=":1168929298_1" function="internal">
        <lane id=":1168929298_1_0" index="0" disallow="tram rail_urban rail rail_electric rail_fast ship" speed="13.89" length="7.39" shape="579.07,1715.60 581.18,1716.12 582.56,1716.70 583.85,1717.51 585.67,1718.74"/>
    </edge>
    <edge id=":1168929308_0" function="internal">
        <lane id=":1168929308_0_0" index="0" disallow="tram rail_urban rail rail_electric rail_fast ship" speed="5.69" length="8.33" shape="533.74,1737.24 535.76,1736.56 536.78,1735.27 536.81,1733.38 535.86,1730.89"/>
    </edge>
    <edge id=":1168929308_1" function="internal">
        <lane id=":1168929308_1_0" index="0" disallow="tram rail_urban rail rail_electric rail_fast ship" speed="9.41" length="13.10" shape="533.74,1737.24 538.08,1736.32 541.37,1735.04 543.62,1733.39 544.82,1731.38"/>
    </edge>
    <edge id=":1168929308_2" function="internal">
        <lane id=":1168929308_2_0" index="0" disallow="tram rail_urban rail rail_electric rail_fast ship" speed="3.65" length="4.67" shape="533.74,1737.24 535.05,1737.85 535.56,1738.58 535.29,1739.43 534.22,1740.40"/>
    </edge>
    <edge id=":1168929308_3" function="internal">
        <lane id=":1168929308_3_0" index="0" disallow="tram rail_urban rail rail_electric rail_fast ship" speed="7.02" length="11.54" shape="542.99,1745.16 542.34,1742.60 540.66,1740.95 537.96,1740.22 534.22,1740.40"/>
    </edge>
    <edge id=":1168929308_4" function="internal">
        <lane id=":1168929308_4_0" index="0" disallow="tram rail_urban rail rail_electric rail_fast ship" speed="9.72" length="16.10" shape="542.99,1745.16 542.11,1741.45 540.21,1737.82 537.91,1734.29 535.86,1730.89"/>
    </edge>
    <edge id=":1168929308_5" function="internal">
        <lane id=":1168929308_5_0" index="0" disallow="tram rail_urban rail rail_electric rail_fast ship" speed="13.89" length="13.98" shape="542.99,1745.16 542.97,1741.57 543.27,1738.19 543.88,1734.84 544.82,1731.38"/>
    </edge>
    <edge id=":1168929310_0" function="internal">
        <lane id=":1168929310_0_0" index="0" disallow="pedestrian rail_urban rail rail_electric rail_fast ship" speed="18.05" length="5.29" shape="903.41,1818.43 902.75,1817.03 901.96,1816.21 901.24,1815.37 900.80,1813.93"/>
    </edge>
    <edge id=":1168929349_0" function="internal">
        <lane id=":1168929349_0_0" index="0" disallow="tram rail_urban rail rail_electric rail_fast ship" speed="8.41" length="10.05" shape="594.04,1755.86 593.04,1757.89 592.76,1760.15 593.18,1762.66 594.32,1765.40"/>
    </edge>
    <edge id=":1168929349_1" function="internal">
        <lane id=":1168929349_1_0" index="0" disallow="tram rail_urban rail rail_electric rail_fast ship" speed="13.89" length="15.20" shape="594.04,1755.86 591.70,1758.83 589.06,1761.58 586.18,1764.09 583.12,1766.32"/>
    </edge>
    <edge id=":1168929349_2" function="internal">
        <lane id=":1168929349_2_0" index="0" disallow="pedestrian tram rail_urban rail rail_electric rail_fast ship" speed="13.89" length="11.93" shape="588.65,1754.82 594.32,1765.40"/>
        <lane id=":1168929349_2_1" index="1" disallow="pedestrian tram rail_urban rail rail_electric rail_fast ship" speed="13.89" length="11.93" shape="585.84,1756.35 591.48,1766.88"/>
        <lane id=":1168929349_2_2" index="2" disallow="pedestrian tram rail_urban rail rail_electric rail_fast ship" speed="13.89" length="11.93" shape="583.04,1757.89 588.64,1768.35"/>
    </edge>
    <edge id=":1168929349_5" function="internal">
        <lane id=":1168929349_5_0" index="0" disallow="pedestrian tram rail_urban rail rail_electric rail_fast ship" speed="6.78" length="9.27" shape="583.04,1757.89 584.32,1760.75 584.76,1763.11 584.36,1764.97 583.12,1766.32"/>
    </edge>
    <edge id=":1168929367_0" function="internal">
        <lane id=":1168929367_0_0" index="0" disallow="pedestrian tram rail_urban rail rail_electric rail_fast ship" speed="8.71" length="7.88" shape="943.20,1781.44 944.23,1781.50 945.80,1781.08 947.89,1780.19 950.51,1778.83"/>
    </edge>
    <edge id=":1168929367_1" function="internal">
        <lane id=":1168929367_1_0" index="0" disallow="pedestrian rail_urban rail rail_electric rail_fast ship" speed="22.22" length="7.10" shape="943.20,1781.44 945.15,1782.21 946.45,1782.86 947.64,1783.68 949.31,1784.96"/>
    </edge>
    <edge id=":1168929383_0" function="internal">
        <lane id=":1168929383_0_0" index="0" disallow="pedestrian tram rail_urban rail rail_electric rail_fast ship" speed="6.36" length="7.30" shape="905.45,1828.95 904.12,1827.87 902.57,1827.44 900.79,1827.67 898.79,1828.55"/>
    </edge>