<?xml version="1.0" encoding="UTF-8"?>

<!-- generated on 2022-01-20 13:03:54 by Eclipse SUMO polyconvert Version 1.11.0
<configuration xmlns:xsi="http://www.w3.org/2001/XMLSchema-instance" xsi:noNamespaceSchemaLocation="http://sumo.dlr.de/xsd/polyconvertConfiguration.xsd">

    <input>
        <net-file value="map.net.xml"/>
        <osm-files value="map.osm"/>
        <type-file value="typemap.xml"/>
    </input>

    <output>
        <output-file value="map.poly.xml"/>
    </output>

    <processing>
        <poi-layer-offset value="5"/>
    </processing>

</configuration>
-->

<additional xmlns:xsi="http://www.w3.org/2001/XMLSchema-instance" xsi:noNamespaceSchemaLocation="http://sumo.dlr.de/xsd/additional_file.xsd">
    <location netOffset="-393658.15,-4988696.48" convBoundary="-3485.01,-1526.45,8343.52,7672.62" origBoundary="7.605814,45.029474,7.754343,45.113927" projParameter="+proj=utm +zone=32 +ellps=WGS84 +datum=WGS84 +units=m +no_defs"/>

    <poly id="101272431" type="unknown" color="51,128,255" fill="0" layer="-1.00" shape="910.687623,1786.455386 911.705056,1785.594048 912.692651,1784.833210 915.177400,1783.169762"/>
    <poly id="1012820213" type="building" color="255,230,230" fill="1" layer="-1.00" shape="1321.019849,1064.697551 1331.373368,1056.337515 1326.458992,1050.629215 1349.279527,1033.585455 1340.284895,1021.166134 1306.289135,1047.850277 1321.019849,1064.697551"/>
    <poly id="1012820214" type="building" color="255,230,230" fill="1" layer="-1.00" shape="1334.854760,1023.833548 1340.903134,1019.011361 1342.197608,1020.612365 1347.382930,1016.471114 1345.871277,1014.595891 1350.559241,1010.862863 1341.191371,999.216407 1325.277755,1011.923876 1334.854760,1023.833548"/>
    <poly id="1012820681" type="building" color="255,230,230" fill="1" layer="-1.00" shape="1372.260170,1020.994995 1363.473969,1007.838827 1375.682848,999.737217 1377.350194,998.631907 1386.136377,1011.788093 1372.260170,1020.994995"/>
    <poly id="1012820682" type="building" color="255,230,230" fill="1" layer="-1.00" shape="1363.473969,1007.838827 1360.824784,1004.326672 1357.488453,1006.437321 1357.947161,1007.507614 1354.409025,1010.277188 1353.515402,1009.102941 1350.559241,1010.862863 1341.191371,999.216407 1360.805451,983.547833 1366.463757,984.210239 1375.682848,999.737217 1363.473969,1007.838827"/>
    <poly id="1020714063" type="unknown" color="51,128,255" fill="0" layer="-1.00" shape="1031.359627,2584.704794 1012.389651,2549.915943 809.311795,2177.583445 580.395846,1736.014022 475.015618,1528.060013 461.977822,1499.419000 446.527326,1464.462092 435.213235,1431.503287 426.331245,1399.404142 418.395193,1366.411444 410.780038,1320.034682 406.217849,1273.484947 407.624518,1231.125193 414.028044,1181.381864 424.834626,1133.065478 435.532004,1096.651783 451.877162,1055.988422 463.270051,1031.552974 475.038403,1011.222716 487.608291,990.301351 500.117766,973.325742 511.313008,959.261076 539.072931,930.031488 567.253563,902.406274 585.446839,886.169915 618.110155,860.948513 659.490828,834.160418 689.865290,817.655738 725.565989,800.762926 764.652452,784.736523 796.090867,773.470661 997.869350,706.794919 1104.149599,680.959886 1168.308556,669.166863 1226.170380,661.445268 1255.320460,660.364574 1286.214136,662.799955 1314.125655,665.906886"/>
    <poly id="1020714078" type="unknown" color="51,128,255" fill="0" layer="-1.00" shape="1032.276855,2577.789142 812.559473,2175.873976 584.963788,1733.649152 478.328570,1526.471530 465.331631,1497.918727 449.954783,1463.127267 438.723691,1430.422651 429.891730,1398.489349 421.998205,1365.684843 414.426691,1319.562926 409.901933,1273.368148 411.291837,1231.419815 417.653686,1182.010540 428.394227,1133.984168 439.009622,1097.849640 455.248805,1057.443623 466.535339,1033.243297 478.204101,1013.081378 490.674397,992.328353 503.037400,975.544084 514.093857,961.659518 541.699060,932.599189 569.771109,905.075796 587.801416,888.986602 620.239131,863.935633 661.370388,837.307253 691.534069,820.917193 727.055112,804.116263 765.977296,788.159261 797.290255,776.928818 998.880749,710.322888 1104.917744,684.547445 1168.888224,672.790874 1226.482643,665.095917 1255.247029,664.032695 1285.864708,666.450400 1314.281289,669.615678 1317.159019,670.257195"/>
    <poly id="1020714134" type="unknown" color="51,128,255" fill="0" layer="-1.00" shape="1317.159019,670.257195 1349.344546,677.483022 1388.783219,687.978687 1428.501903,700.181207 1470.642765,715.988799 1515.095615,736.370050 1552.833546,757.006450 1591.797042,782.256558 1634.533976,813.311950 1665.733588,840.190137 1695.077975,868.265672 1721.575408,896.621414 1748.985461,930.207065 1772.720778,960.186215 1790.291145,984.555099 1808.727311,1011.776678"/>
    <poly id="1020714135" type="unknown" color="51,128,255" fill="0" layer="-1.00" shape="1314.125655,665.906886 1314.891147,665.994279 1350.223259,673.923870 1389.796554,684.461772 1429.689414,696.716991 1472.060120,712.609704 1516.751054,733.098169 1554.719552,753.864130 1593.881930,779.233211 1636.826164,810.440778 1668.209629,837.482634 1697.697946,865.689159 1724.347725,894.209089 1751.854270,927.915398 1775.605694,957.916518 1793.194720,982.462893 1812.177260,1010.342228"/>
    <poly id="1021614105" type="unknown" color="51,128,255" fill="0" layer="-1.00" shape="1808.727311,1011.776678 1815.785744,1024.817311 1822.178565,1037.135486 1828.388616,1049.356658 1833.588140,1059.994304 1850.540823,1097.640987 1863.664006,1126.549925"/>
    <poly id="1021614106" type="unknown" color="51,128,255" fill="0" layer="-1.00" shape="1853.420699,1096.027003 1835.758972,1056.447371 1826.890500,1038.691652 1819.105327,1023.118319 1812.177260,1010.342228"/>
    <poly id="1021614107" type="unknown" color="51,128,255" fill="0" layer="-1.00" shape="1628.416008,800.978321 1657.613265,823.911333 1684.491393,846.649205 1708.757509,870.541247 1727.793447,891.074555 1743.743485,908.358348 1760.303518,926.821134 1775.172626,945.922852 1788.185795,963.766078 1801.136147,983.066007 1816.255915,1008.341878"/>
    <poly id="1021614108" type="unknown" color="51,128,255" fill="0" layer="-1.00" shape="1630.528910,798.221210 1660.274619,821.456355 1686.905872,844.509423 1710.988869,868.282251 1730.293082,888.844497 1746.181035,906.184874 1762.823820,924.890769 1777.457424,944.040804 1790.530486,961.694151 1804.349881,981.635428 1819.547836,1006.876688"/>
    <poly id="1021614109" type="unknown" color="51,128,255" fill="0" layer="-1.00" shape="1812.177260,1010.342228 1793.999730,980.160652 1778.854070,956.196450 1763.272477,934.472912 1747.442046,913.431314 1730.210932,892.957221 1712.445491,873.047536 1698.139208,858.503674 1683.399765,843.966955 1668.010140,829.652071 1652.954248,815.998451 1630.528910,798.221210"/>
    <poly id="1021614110" type="unknown" color="51,128,255" fill="0" layer="-1.00" shape="1628.416008,800.978321 1650.974269,819.175620 1665.976007,831.930067 1681.351707,846.356293 1695.855464,860.930212 1709.979874,875.910416 1727.305112,895.393959 1744.211558,915.762254 1760.140714,936.579987 1775.605694,957.916518 1790.760148,981.936127 1808.727311,1011.776678"/>
    <poly id="102273052" type="unknown" color="51,128,255" fill="0" layer="-1.00" shape="972.603455,320.030818 983.231559,333.000481 987.460151,338.153167 992.187272,343.919880 1020.944144,379.024866 1123.603745,504.304690 1131.957002,514.545283 1237.659663,644.065774 1259.275943,670.955625 1270.240410,684.331328 1443.230602,895.873879 1452.345725,907.002385 1527.621160,998.936787 1538.567636,1013.202165 1544.475381,1020.894419 1550.206611,1027.911759 1605.155404,1095.212962 1620.888634,1113.211168 1633.728434,1122.411927"/>
    <poly id="103851567" type="unknown" color="51,128,255" fill="0" layer="-1.00" shape="1493.868855,1484.724045 1517.868116,1469.028202 1523.722813,1464.420487 1528.006949,1461.049801 1533.560850,1455.391417 1541.322996,1446.563181 1544.686129,1442.740956 1549.441144,1437.351297"/>
    <poly id="103851586" type="unknown" color="51,128,255" fill="0" layer="-1.00" shape="2006.620614,1918.981015 1954.475182,1947.125785 1905.377653,1972.854217 1901.622035,1974.827014 1895.016430,1978.291071 1846.918738,2003.492434 1832.208425,2011.200869 1830.559794,2011.994629 1820.196327,2017.287192 1814.546978,2022.391313 1812.978183,2032.851071"/>
    <poly id="103851602" type="unknown" color="51,128,255" fill="0" layer="-1.00" shape="960.726879,1802.084309 943.929291,1811.173870 941.728139,1812.365917 938.583878,1814.151385 933.660686,1816.944128 928.238388,1820.034042 913.951111,1828.048750 909.113259,1830.762318"/>
    <poly id="105377046" type="leisure" color="207,245,201" fill="1" layer="-2.00" shape="1452.685070,1254.486427 1493.178321,1233.563191 1482.816404,1213.643459 1442.323238,1234.577867 1452.685070,1254.486427"/>
    <poly id="106366574" type="parking" color="184,184,179" fill="1" layer="-1.00" shape="366.699938,1908.799121 316.462332,1813.150055 380.047662,1803.136108 408.733892,1798.625497 442.964389,1795.056276 471.902578,1858.791148 419.054777,1881.771082 366.699938,1908.799121"/>
    <poly id="106374775" type="unknown" color="51,128,255" fill="0" layer="-1.00" shape="125.226503,944.415496 178.764055,928.377955 249.461996,907.432646 301.475902,892.099345 343.523225,880.854724 344.095657,880.700749"/>
    <poly id="106374777" type="unknown" color="51,128,255" fill="0" layer="-1.00" shape="124.011580,940.991048 177.794374,925.016084 248.292162,903.874084 300.489239,888.659957 343.087795,877.406163"/>
    <poly id="107042216" type="building" color="255,230,230" fill="1" layer="-1.00" shape="1696.532771,1325.260312 1688.213260,1309.762578 1687.338699,1303.987673 1709.635321,1281.420107 1721.876663,1292.575427 1718.105558,1290.748326 1715.082301,1297.053923 1720.116697,1318.261546 1708.524660,1322.185441 1696.532771,1325.260312"/>
    <poly id="108722118" type="unknown" color="51,128,255" fill="0" layer="-1.00" shape="1766.464238,1216.827632 1760.131165,1224.465378 1756.107213,1229.309501 1754.139615,1234.675471 1753.480669,1241.075588 1754.545722,1247.902997 1755.913256,1252.525299"/>
    <poly id="108722119" type="unknown" color="51,128,255" fill="0" layer="-1.00" shape="1719.271862,1224.102625 1721.150301,1226.260819 1723.069920,1231.407420 1724.318308,1235.487192 1725.000446,1237.698361 1725.057290,1239.241972 1725.173532,1242.484719 1725.233658,1244.228290 1724.830863,1246.079466 1724.172357,1249.146031 1722.242671,1254.900303 1719.941550,1259.138353"/>
    <poly id="108733421" type="unknown" color="51,128,255" fill="0" layer="-1.00" shape="944.746578,1782.024982 946.971077,1782.243760 950.851544,1782.590715 955.706803,1782.354843 960.146771,1781.770263"/>
    <poly id="108733422" type="unknown" color="51,128,255" fill="0" layer="-1.00" shape="915.243582,1770.034414 917.250114,1771.834676 920.664344,1773.989453 921.395122,1774.366278 924.752553,1775.944179 930.034747,1777.712476 934.160634,1779.088766"/>
    <poly id="108733424" type="unknown" color="51,128,255" fill="0" layer="-1.00" shape="966.260693,1798.592552 964.253690,1801.048135 962.289544,1803.714136 961.770540,1805.189489 961.584866,1808.248328"/>
    <poly id="108733425" type="unknown" color="51,128,255" fill="0" layer="-1.00" shape="904.304158,1794.283777 904.790430,1790.831045 905.451570,1787.475426 906.033242,1784.076674 905.967035,1779.599678 905.606883,1776.872113"/>
    <poly id="108733428" type="unknown" color="51,128,255" fill="0" layer="-1.00" shape="915.980538,1835.993508 911.376253,1834.736265 907.798123,1834.573234 904.384812,1834.851954 900.605166,1835.836787"/>
    <poly id="108733429" type="unknown" color="51,128,255" fill="0" layer="-1.00" shape="944.023521,1850.197263 942.180182,1848.738762 940.371091,1847.446374 934.216324,1842.914532 931.013087,1841.134063 928.281537,1839.779156"/>
    <poly id="108733430" type="unknown" color="51,128,255" fill="0" layer="-1.00" shape="954.777841,1828.562323 954.274587,1830.037416 953.824240,1831.378291 953.349099,1834.553038 953.120005,1840.223890 953.112215,1841.657452"/>
    <poly id="108733431" type="unknown" color="51,128,255" fill="0" layer="-1.00" shape="892.429319,1820.537672 894.545164,1817.046858 896.078206,1813.554578 896.757969,1812.276573 897.972317,1809.989651 900.398935,1807.193746"/>
    <poly id="110678668" type="unknown" color="51,128,255" fill="0" layer="-1.00" shape="519.004500,1053.428925 508.278312,1048.773358 507.126035,1048.159115 495.514970,1041.918149 491.805976,1038.646179 487.873803,1032.844404 476.732475,1012.683571 473.462886,1004.570635 472.271851,998.778895 472.120100,992.014269 473.360376,986.071024 474.581894,979.472489 475.212539,970.494711 474.786297,963.801316 473.251743,956.770750 471.216179,949.926297 467.702018,942.739714 461.579776,932.651806 452.385457,915.914466 446.306288,903.681259 443.563279,898.348675 441.549823,895.681938 439.361530,893.395911 434.634102,890.463138 428.653038,887.929005 422.542350,885.652606 420.854879,884.591683"/>
    <poly id="111549913" type="unknown" color="51,128,255" fill="0" layer="-1.00" shape="132.272443,2255.428121 194.515826,2219.977081 197.277435,2218.408735 206.942800,2212.902867 226.825517,2201.459731 233.416611,2197.660791 267.511647,2178.047175 432.632699,2085.538012 493.357043,2049.470769 500.741898,2045.081110 503.021066,2043.854273 518.382210,2035.120721 534.514891,2025.896584 551.804342,2016.142133 648.927301,1961.437540 657.052433,1957.035789 660.135590,1955.373422 669.443815,1950.129782"/>
    <poly id="111595576" type="unknown" color="51,128,255" fill="0" layer="-1.00" shape="1942.141636,1281.784968 1934.256361,1261.990654 1913.343945,1209.507701 1904.270664,1187.399405 1894.654195,1161.466445 1885.743370,1141.588988 1876.263957,1119.220701"/>
    <poly id="111863096" type="unknown" color="51,128,255" fill="0" layer="-1.00" shape="901.065637,1816.072225 917.356477,1806.346444 920.179403,1804.655178 925.608297,1801.487365 930.405526,1798.696699 933.425657,1797.024400 944.319353,1790.477083 951.150399,1786.374925"/>
    <poly id="111863125" type="unknown" color="51,128,255" fill="0" layer="-1.00" shape="909.113259,1830.762318 907.478994,1831.944997 900.605166,1835.836787 897.882222,1837.381953 719.523969,1938.331938 716.746553,1939.911423 711.643944,1942.796215 703.614892,1947.296309 688.112128,1956.065081"/>
    <poly id="112174059" type="building" color="255,230,230" fill="1" layer="-1.00" shape="349.581117,1221.422855 336.666632,1227.726986 351.214041,1256.620457 379.591741,1241.458609 383.509399,1235.493047 384.394749,1218.632672 368.849824,1217.846624 368.532252,1223.852337 371.518256,1225.802828 370.628491,1229.606784 367.517267,1232.914310 357.353743,1237.928119 349.581117,1221.422855"/>
    <poly id="112174060" type="building" color="255,230,230" fill="1" layer="-1.00" shape="343.707019,1211.097581 349.581117,1221.422855 336.666632,1227.726986 320.949257,1201.897672 376.236349,1172.765016 377.232887,1175.381969 378.478701,1174.516750 380.906617,1174.165248 382.179514,1174.455218 383.248677,1175.281947 384.015066,1176.847096 384.384330,1180.107858 386.712350,1180.380286 384.394749,1218.632672 368.849824,1217.846624 369.992283,1197.503944 373.915318,1191.860533 370.169074,1189.189296 366.257423,1195.043646 345.837400,1206.117347 340.013174,1204.947462 338.715780,1209.813835 343.707019,1211.097581"/>
    <poly id="122302021" type="unknown" color="51,128,255" fill="0" layer="-1.00" shape="685.357194,789.461833 663.896018,800.085007 631.451371,817.624215 598.186565,839.366383 558.866392,873.065620 516.805341,915.289000 486.776061,952.523606 454.060481,1009.148818 439.125474,1036.565569 421.355057,1078.197161 401.088535,1137.860483 392.650454,1191.715717 389.695374,1237.579245 390.929289,1297.585267 398.694162,1344.904033 409.148083,1391.955869 428.018275,1444.990495 446.894287,1491.757957 469.433246,1540.953679 501.121100,1607.076509 514.802672,1635.618007"/>
    <poly id="123339606" type="unknown" color="51,128,255" fill="0" layer="-1.00" shape="-103.568973,1171.882477 -69.551280,1179.903913 -40.109793,1188.868646 46.892337,1221.041641 127.639333,1258.853784 156.840486,1275.179504 185.854159,1292.552998 224.094563,1318.206917 262.021260,1344.432987 293.634048,1370.364312 354.547406,1428.155181 386.236751,1459.686074 472.443748,1571.883667 514.802672,1635.618007"/>
    <poly id="123339609" type="unknown" color="51,128,255" fill="0" layer="-1.00" shape="519.573030,1635.005412 501.121100,1607.076509 475.914883,1568.914678 390.830064,1458.365167 358.073687,1425.185211 296.167013,1367.810868 263.970262,1341.811467 226.131572,1315.195003 187.612980,1289.390138 158.879329,1272.278657 129.281693,1255.792856 48.085108,1217.943743 -39.295568,1185.743713 -68.807192,1176.824595 -102.665296,1168.456019"/>
    <poly id="123339612" type="unknown" color="51,128,255" fill="0" layer="-1.00" shape="940.503144,2478.522023 844.807548,2305.226919 731.316591,2019.775612 584.198097,1734.017441 477.475511,1526.796835 464.651421,1498.218939 449.165630,1463.507073 437.932504,1430.680262 429.305811,1398.776885 421.052975,1365.678330 413.735266,1319.663314 408.986893,1273.283351 410.251915,1231.403765 416.797933,1181.702518 427.421648,1133.755870 438.162841,1097.608137 454.591184,1057.210087 465.875503,1032.876454 477.352512,1012.551040 489.861256,991.741815 502.226967,974.646367 513.194593,960.629931 541.009693,931.877248 569.382445,904.437756 587.269171,888.239825 619.870223,863.063913 660.846206,836.571448 691.133303,820.023774 726.566994,803.179841 765.632213,787.298250 796.709675,776.116153 846.022954,759.765355"/>
    <poly id="123339613" type="unknown" color="51,128,255" fill="0" layer="-1.00" shape="936.922009,2480.059158 841.446033,2306.716021 727.557843,2021.538039 579.644981,1736.326507 474.227210,1528.484252 461.219060,1499.731629 445.809406,1464.862939 434.431029,1431.827420 425.720228,1399.603200 417.569549,1366.491839 410.066838,1320.246552 405.166987,1273.757990 406.725774,1231.073462 413.278281,1180.816507 423.939127,1132.735892 434.809547,1096.308208 451.155256,1055.678171 462.465893,1031.032962 474.259712,1010.813398 486.878999,989.546743 499.451837,972.592304 510.473291,958.497186 538.376427,929.354113 566.834507,901.835410 585.135261,885.430588 617.672772,860.222384 659.217156,833.331564 689.394389,816.807928 725.084089,799.726394 764.378607,783.896556 795.776550,772.564692 845.184717,756.234541"/>
    <poly id="123339622" type="unknown" color="51,128,255" fill="0" layer="-1.00" shape="904.550586,699.981782 866.896358,717.405916 823.965960,737.273340"/>
    <poly id="123339624" type="unknown" color="51,128,255" fill="0" layer="-1.00" shape="825.472147,741.659820 869.949745,721.044531 906.188755,704.254978"/>
    <poly id="131318387" type="building" color="255,230,230" fill="1" layer="-1.00" shape="378.142718,1136.308484 383.653735,1112.004010 386.522209,1112.567475 387.300489,1110.109916 390.810044,1106.595767 387.234556,1106.144061 399.066208,1093.435363 402.674863,1100.620339 392.147483,1143.931764 390.344581,1145.872985 378.142718,1136.308484"/>
    <poly id="131318388" type="building" color="255,230,230" fill="1" layer="-1.00" shape="312.597185,1118.852849 339.724752,1172.927731 345.348404,1154.932908 343.604718,1154.750783 330.712654,1128.318858 331.288216,1125.986895 312.597185,1118.852849"/>
    <poly id="131318389" type="building" color="255,230,230" fill="1" layer="-1.00" shape="312.597185,1118.852849 349.085979,1105.933896 353.904956,1119.588073 335.640281,1126.247861 334.697657,1123.085534 332.075898,1124.095880 331.288216,1125.986895 312.597185,1118.852849"/>
    <poly id="131318390" type="building" color="255,230,230" fill="1" layer="-1.00" shape="339.724752,1172.927731 388.037067,1148.255960 390.344581,1145.872985 378.142718,1136.308484 376.750264,1138.776256 347.324134,1155.333413 345.348404,1154.932908 339.724752,1172.927731"/>
    <poly id="131318391" type="building" color="255,230,230" fill="1" layer="-1.00" shape="399.066208,1093.435363 393.320750,1091.797416 356.449145,1103.966866 360.990042,1117.003405 382.273087,1109.971261 381.157253,1106.811808 383.835439,1105.878328 386.643707,1102.820312 387.234556,1106.144061 399.066208,1093.435363"/>
    <poly id="131477878" type="landuse" color="194,194,130" fill="1" layer="-3.00" shape="502.548944,1021.544342 493.096542,1003.955619 493.442103,1001.049674 494.737132,997.927947 497.110689,995.721708 499.800870,995.032542 502.918041,995.391916 506.032987,997.040309 515.485362,1014.629051 515.796180,1018.168585 514.270636,1021.638605 511.597066,1023.327560 508.212913,1024.439386 504.905794,1023.549793 502.548944,1021.544342"/>
    <poly id="131477879" type="landuse" color="194,194,130" fill="1" layer="-3.00" shape="428.180245,867.535413 425.527956,864.345925 424.223859,861.234040 423.790318,857.896563 424.262525,854.555146 425.597295,851.454968 427.703829,848.819778 430.427590,846.829934 433.589681,845.621753 436.955527,845.299140 440.296767,845.865889 443.360679,847.281752 446.447291,850.064003 448.476630,853.686101 449.221754,857.762900 448.604595,861.862333 446.688645,865.538868 443.688114,868.411144 439.920686,870.162749 435.785003,870.609272 431.729168,869.698820 428.180245,867.535413"/>
    <poly id="131477880" type="landuse" color="194,194,130" fill="1" layer="-3.00" shape="443.980741,1057.153031 478.626887,1044.698824 489.541386,1040.772828 473.833455,1011.231619 468.369686,1018.967368 442.290180,1055.903253 443.980741,1057.153031"/>
    <poly id="131477882" type="building" color="255,230,230" fill="1" layer="-1.00" shape="384.842290,1041.368084 399.386819,1036.437071 406.261188,989.419456 395.523697,956.139996 374.402186,932.178288 362.709341,935.250690 350.004547,939.517805 344.959534,925.067333 379.332747,914.639512 409.607821,948.138670 423.298339,988.491804 414.319269,1043.944977 412.540703,1047.352557 408.187572,1050.347342 390.221426,1056.501967 384.842290,1041.368084"/>
    <poly id="131477883" type="building" color="255,230,230" fill="1" layer="-1.00" shape="373.133872,1007.015833 387.678472,1002.084795 370.313703,957.725863 357.601076,961.993095 373.133872,1007.015833"/>
    <poly id="131477884" type="parking" color="184,184,179" fill="1" layer="-1.00" shape="439.149049,984.894832 424.239556,940.383850 395.235207,907.985803 389.073792,913.555283 416.773896,945.674957 422.019161,960.811090 430.748153,985.567802 425.791817,1028.575447 433.322312,1029.561495 439.149049,984.894832"/>
    <poly id="133326361" type="amenity" color="237,199,199" fill="0" layer="-1.00" shape="638.651786,2001.888673 643.813798,1998.791708"/>
    <poly id="134148115" type="unknown" color="51,128,255" fill="0" layer="-1.00" shape="2231.901111,2094.040676 2229.875791,2088.651203 2227.952184,2085.149079 2206.326818,2043.677611 2192.171254,2019.340758 2188.573769,2013.165834 2187.804224,2011.856107 2175.819647,1990.261753 2173.620490,1986.286340 2167.501250,1977.119130 2166.861843,1976.062850 2166.675313,1975.732545 2158.126993,1960.571341 2157.056505,1958.677612 2110.666262,1874.097545 2108.021101,1869.340510 2107.315235,1868.074198 2101.456146,1857.491589 2100.425536,1855.630551 2096.116372,1847.844993 2070.740240,1802.012808 2010.333622,1686.905269 1981.816398,1632.568734 1963.362773,1597.402039 1943.901145,1560.329562 1840.651485,1365.853714 1832.145758,1352.903467 1801.398446,1314.516383 1760.044851,1262.880394 1752.366925,1254.316945 1748.331214,1249.805105 1739.727974,1243.890362 1735.394330,1241.861358"/>
    <poly id="140260606" type="parking" color="184,184,179" fill="1" layer="-1.00" shape="260.520535,1316.733732 172.140450,1262.212553 61.820013,1206.536075 51.241212,1231.503216 148.599995,1280.728321 153.159437,1283.041410 157.718690,1285.343393 235.284966,1334.199541 261.286535,1351.867979 284.201218,1340.708018 374.618570,1296.678600 377.032770,1295.505042 376.184541,1287.596354 373.094372,1259.012343 326.169379,1282.750006 338.143683,1306.108073 326.487288,1311.802372 314.676343,1288.797189 260.520535,1316.733732"/>
    <poly id="140266730" type="leisure" color="207,245,201" fill="1" layer="-2.00" shape="558.187072,1924.351762 567.305879,1863.107086 573.413723,1861.950062 576.485395,1855.798635 574.259068,1849.301788 569.369933,1847.493923 575.600245,1805.320811 620.482643,1891.715532 558.187072,1924.351762"/>
    <poly id="147254749" type="unknown" color="51,128,255" fill="0" layer="-1.00" shape="1863.664006,1126.549925 1853.420699,1096.027003"/>
    <poly id="147254756" type="unknown" color="51,128,255" fill="0" layer="-1.00" shape="1863.664006,1126.549925 1873.673981,1150.531824 1881.397894,1168.150797 1892.284947,1193.273975 1899.081679,1210.552585"/>
    <poly id="149395093" type="landuse" color="194,194,130" fill="1" layer="-3.00" shape="507.460530,946.401911 471.961414,878.142166 470.542306,873.320951 470.544247,861.108943 470.220675,853.958256 464.796319,832.780190 703.768825,760.699124 716.841948,756.759987 730.157909,752.739071 736.678827,750.775341 821.764016,721.786503 830.806020,744.593952 844.452095,751.946372 844.928654,755.516508 730.092829,788.742643 703.064191,800.402447 700.366950,794.968993 669.191091,808.753382 673.491061,817.738279 644.627659,830.839966 580.437008,875.707859 539.446994,913.657458 507.460530,946.401911"/>
    <poly id="149395470" type="tourism" color="207,245,201" fill="1" layer="-2.00" shape="886.204222,741.799242 872.357758,706.625923 921.554406,684.132802 929.861549,706.819191 932.815775,705.892498 942.411550,717.912422 950.901751,719.283247 952.557744,721.778260 886.204222,741.799242"/>
    <poly id="149415676" type="unknown" color="51,128,255" fill="0" layer="-1.00" shape="473.462886,1004.570635 476.493399,995.919685 478.215298,991.468547 480.851112,986.557754 483.742598,981.864954 488.635153,976.249968 492.500224,973.741159 496.805085,972.102887 501.034828,971.632616 504.936674,971.812283"/>
    <poly id="149415679" type="unknown" color="51,128,255" fill="0" layer="-1.00" shape="559.098300,1081.131997 572.402145,1100.156997 574.854884,1103.672098 582.790769,1118.652580 599.897464,1156.115833 601.338073,1169.837345 601.881029,1175.028704"/>
    <poly id="149415683" type="unknown" color="51,128,255" fill="0" layer="-1.00" shape="424.401565,827.373128 431.262784,829.781514 437.038976,830.885620 438.113599,831.090002 442.594864,832.004503 447.617684,833.276703"/>
    <poly id="149422201" type="unknown" color="51,128,255" fill="0" layer="-1.00" shape="1544.109553,1495.320587 1547.229311,1501.125225 1548.504933,1503.504407 1615.896293,1628.960425 1621.077290,1638.953721 1642.109806,1679.499691 1668.492300,1729.802931 1673.042987,1738.350968 1720.402583,1825.912335 1725.746783,1835.791911 1738.741338,1859.791274 1766.818538,1916.034124 1769.987877,1922.004725 1809.051922,1996.579763 1813.131758,2004.291117 1820.196327,2017.287192"/>
    <poly id="149422218" type="unknown" color="51,128,255" fill="0" layer="-1.00" shape="1493.868855,1484.724045 1501.746081,1481.938710 1507.357311,1480.246288 1512.771123,1479.479403 1517.934074,1478.783321 1524.058280,1480.027116 1527.143264,1480.843097 1531.430692,1482.461579 1534.181108,1484.005336"/>
    <poly id="149425925" type="unknown" color="51,128,255" fill="0" layer="-1.00" shape="1506.783521,1449.198109 1502.833199,1440.784757"/>
    <poly id="149425928" type="unknown" color="51,128,255" fill="0" layer="-1.00" shape="962.643247,307.439046 967.555381,317.247401 969.722185,322.523053 971.076482,325.823113 970.717778,327.473597 969.144906,334.777864 964.395687,343.401389 893.691167,403.974599 815.582548,471.627241 812.170544,474.883946 810.355950,476.614103 808.242394,479.793754 806.936379,484.171230 806.330129,488.470449 807.305166,496.454854 809.490493,500.941205 813.696235,506.138604 838.045834,534.793080 841.896213,539.463009 842.298229,539.956389 844.227353,542.291289 848.913988,547.991897 859.179170,560.456214 887.635873,595.043313 936.232802,655.788139 940.166011,660.712326 942.870850,663.756698 953.192030,675.342393 980.039909,707.489644 985.864376,715.327239 990.335229,721.331531 997.698239,731.232738 1002.217603,737.314019 1010.386209,748.302000 1046.502262,792.241611 1068.056024,817.231735 1073.564896,823.618964 1077.299003,827.946478 1085.423565,837.712971 1088.613938,841.549437 1093.670806,847.755244 1133.796313,897.029476 1141.320233,906.683720 1172.603965,944.281108 1223.587388,1006.299801 1248.113131,1036.786294 1258.283563,1048.852747 1267.747842,1060.608614 1357.366484,1169.250169 1364.142476,1177.050189 1372.645769,1186.910792 1397.462366,1218.404210 1408.578680,1234.855605 1414.800026,1244.853842 1422.066722,1256.634994 1429.946765,1271.228467 1434.566552,1280.108567 1438.641402,1287.942014 1450.105442,1310.699282 1470.861402,1349.149149 1472.875536,1352.849585 1488.798250,1383.334064 1509.988167,1425.210468 1514.164267,1433.464544"/>
    <poly id="149824521" type="building" color="255,230,230" fill="1" layer="-1.00" shape="782.931901,1005.737970 775.472726,991.460517 829.841671,963.258314 837.300936,977.546937 782.931901,1005.737970"/>
    <poly id="149824523" type="building" color="255,230,230" fill="1" layer="-1.00" shape="726.418442,858.386133 715.258843,835.191663 744.134795,821.890077 749.266190,832.572476 752.321557,831.099538 762.814043,851.593821 748.834189,859.270372 743.804853,849.041870 726.418442,858.386133"/>
    <poly id="149824524" type="building" color="255,230,230" fill="1" layer="-1.00" shape="951.601765,1459.389160 962.485209,1451.708655 982.025577,1473.164836 970.219016,1479.316021 951.601765,1459.389160"/>
    <poly id="149824528" type="building" color="255,230,230" fill="1" layer="-1.00" shape="735.377809,1043.995042 732.870305,1039.547390 731.535119,1036.924886 738.690120,1033.317194 734.569907,1025.184895 743.906379,1020.607664 751.542773,1036.071117 735.377809,1043.995042"/>